<routes>
  <vType id="emergency" vClass="emergency" accel="3.2" decel="5.5" sigma="0.1" length="5.0" minGap="1.0" maxSpeed="31.0" speedFactor="1.35" lcAssertive="1.3" lcCooperative="0.3" guiShape="emergency" color="1,0,0"/>
  <vehicle id="ambulance_1" type="emergency" depart="10.0" departLane="best" departSpeed="max">
    <param key="has.bluelight.device" value="true"/>
    <param key="device.bluelight.reactiondist" value="75"/>
    <route edges="420247500#3 1379754671 1379754668 1386105767 1386105766 1140793694 563566156#3 563566156#4 563566156#5 563566156#6 563566156#7 563566156#8 563566156#9 563566156#10 563566156#11 563566156#12 563566156#13 563566156#14 435248358#0 435248358#1 435248358#2 32002539 311521833 435248372#0 435248372#1 172812920 1156878945 311509463 229422270#0 229422270#1 229422270#2 229422270#3 229422270#4 229422270#5 -824563430 1424775225#6 1424775225#7 1250755337 144303623#0 144303623#1 144303623#2 144303623#3 144303623#4 1250755338#0 1250755338#1 1250755338#2 -1250755338#2 -1250755338#1"/>
  </vehicle>
  <vehicle id="ambulance_2" type="emergency" depart="16.0" departLane="best" departSpeed="max">
    <param key="has.bluelight.device" value="true"/>
    <param key="device.bluelight.reactiondist" value="75"/>
    <route edges="144309354#2 -144309354#2 -144309354#1 -144309350#13 -144309350#12 -144309350#11 -144309350#10 -144309350#9 -144309350#8 -144309350#7 -144309350#6 -144309350#5 -144309350#4 -144309350#3 -144309350#2 -144309350#1 -144309350#0 1227727878 313353057#4 313353057#5 313353057#6 435248371 172812915#0 172812915#1 172812915#2 311522765 311522764#0 311522764#1 31521331#0 31521331#1 31521331#2 31521331#3 31521331#4 31521331#5 31521331#6 31521331#7 31521331#8 31521331#9 31521331#10 31521331#11 31521331#12 31521331#13 31521331#14 31521331#15 31521331#16 31521331#17 31521331#18 31521331#19 31521331#20 31521331#21 31521331#22 31521331#23 31521331#24 31521331#25 31521331#26 31521331#27 31521331#28 237961625#0 354536777#2 363233833#0 363233833#1 1373589614#0 1373589614#1"/>
  </vehicle>
  <vehicle id="ambulance_3" type="emergency" depart="22.0" departLane="best" departSpeed="max">
    <param key="has.bluelight.device" value="true"/>
    <param key="device.bluelight.reactiondist" value="75"/>
    <route edges="-308225000#1 -308225000#0 -31357626 172812678#5 172812678#6 172812678#7 172812678#8 172812678#9 172812678#10 172812678#11 172812678#12 172812678#13 172812678#14 172812678#15 172812678#16 563566156#0 563566156#1 563566156#2 563566156#3 563566156#4 563566156#5 563566156#6 563566156#7 563566156#8 563566156#9 563566156#10 563566156#11 563566156#12 563566156#13 563566156#14 435248358#0 435248358#1 435248358#2 32002539 311521833 435248372#0 435248372#1 172812920 1156878945 311509463 229422270#0 229422270#1 229422270#2 229422270#3 229422270#4 144303581#0 144303581#1"/>
  </vehicle>
  <vehicle id="ambulance_4" type="emergency" depart="28.0" departLane="best" departSpeed="max">
    <param key="has.bluelight.device" value="true"/>
    <param key="device.bluelight.reactiondist" value="75"/>
    <route edges="339664957#0 -314943048#1 -314943048#0 229422270#12 229422270#13 229422270#14 -1492607271 313351521#4 313351521#5 313351521#6 313351521#7 313351521#8 313351521#9 313351521#10 1474768422#0 1474768422#1 1474768422#2 1123618292#0 1123618292#1 564179189 311684621#0 311684621#1 435248360#0 435248360#1 435248360#2 311521832 32002539 435248365#0 435248365#1 1098517313 28656749#0 28656749#1 28656749#2 116231734 313353057#3 313353057#4 313353057#5 313353057#6 -311684622#1 311684622#1"/>
  </vehicle>
  <vehicle id="ambulance_5" type="emergency" depart="34.0" departLane="best" departSpeed="max">
    <param key="has.bluelight.device" value="true"/>
    <param key="device.bluelight.reactiondist" value="75"/>
    <route edges="339665123#0 -354531917 229422270#11 229422270#12 229422270#13 229422270#14 -1492607271 313351521#4 313351521#5 313351521#6 313351521#7 313351521#8 313351521#9 313351521#10 1474768422#0 1474768422#1 1474768422#2 1123618292#0 1123618292#1 564179189 311684621#0 311684621#1 435248360#0 435248360#1 435248360#2 311521832 32002539 435248365#0 435248365#1 1098517313 28656749#0 28656749#1 28656749#2 28656749#3 28656749#4 28656749#5 313353059#0 313353059#1 313353059#2 -1291297328 313353060#3 313353060#4"/>
  </vehicle>
  <vehicle id="ambulance_6" type="emergency" depart="40.0" departLane="best" departSpeed="max">
    <param key="has.bluelight.device" value="true"/>
    <param key="device.bluelight.reactiondist" value="75"/>
    <route edges="-654438532#3 654438532#3 652168738#1 817064495 313353057#1 313353057#2 313353057#3 313353057#4 313353057#5 313353057#6 435248371 172812915#0 172812915#1 172812915#2 311522765 311521832 29253113#0 29253113#1 1232453855 314808459#0 314808459#1 314808459#2 1310268905 313352846#0 313352846#1 313352846#2 313352846#3 1425562350#0 1425562350#1 68883444#0 68883444#1 68883444#2 68883444#3 -68883432#3 420247500#0 420247500#1 420247500#2 420247500#3 -1379754669 -354533412#1 -354533412#0 -31521830#4 -31521830#3 -31521830#2 -31521830#1 -31521830#0 1140793693#0 1140793693#1 1388199385"/>
  </vehicle>
  <vehicle id="ambulance_7" type="emergency" depart="46.0" departLane="best" departSpeed="max">
    <param key="has.bluelight.device" value="true"/>
    <param key="device.bluelight.reactiondist" value="75"/>
    <route edges="144303621#3 -1199771912#2 -1199771912#1 -1199771912#0 313351524#0 313351524#1 313351524#2 311684620 311684621#0 311684621#1 435248360#0 435248360#1 435248360#2 311521832 29253113#0 29253113#1 1232453855 314808459#0 314808459#1 314808459#2 1310268905 313352846#0 313352846#1 313352846#2 313352846#3 1425562350#0 1425562350#1 68883444#0 68883444#1 68883444#2 68883446 -68883441#0 68883432#5 68883432#6 -68883440#1"/>
  </vehicle>
  <vehicle id="ambulance_8" type="emergency" depart="52.0" departLane="best" departSpeed="max">
    <param key="has.bluelight.device" value="true"/>
    <param key="device.bluelight.reactiondist" value="75"/>
    <route edges="-354531244#4 -354531244#3 747519469#0 420255702#0 420255702#1 1456888057 -678830576#1 -678830576#0 -31357948#2 -31357948#1 -31357948#0 -563566157#2 -563566157#1 -563566157#0 563566156#0 563566156#1 563566156#2 563566156#3 563566156#4 563566156#5 563566156#6 563566156#7 563566156#8 563566156#9 563566156#10 563566156#11 563566156#12 563566156#13 563566156#14 435248358#0 435248358#1 435248358#2 32002539 435248365#0 435248365#1 1098517313 28656749#0 28656749#1 28656749#2 28656749#3 28656749#4 28656749#5 313353059#0 313353059#1 313353059#2 -1291297328 313353060#3 652168743"/>
  </vehicle>
  <vehicle id="ambulance_9" type="emergency" depart="58.0" departLane="best" departSpeed="max">
    <param key="has.bluelight.device" value="true"/>
    <param key="device.bluelight.reactiondist" value="75"/>
    <route edges="144309350#9 -144309350#9 -144309350#8 -144309350#7 -144309350#6 -144309350#5 -144309350#4 -144309350#3 -144309350#2 -144309350#1 -144309350#0 1227727878 313353057#4 313353057#5 313353057#6 435248371 229422268#0 229422268#1 435248361 172812920 1156878945 311509463 229422270#0 229422270#1 229422270#2 144303621#0 144303621#1 144303621#2"/>
  </vehicle>
  <vehicle id="ambulance_10" type="emergency" depart="64.0" departLane="best" departSpeed="max">
    <param key="has.bluelight.device" value="true"/>
    <param key="device.bluelight.reactiondist" value="75"/>
    <route edges="-144303609#2 -144303609#1 -144303570 -1424775225#2 -1424775225#1 -1424775225#0 -1199771912#2 -1199771912#1 -1199771912#0 313351524#0 313351524#1 313351524#2 311684620 311684621#0 311684621#1 435248360#0 435248360#1 435248360#2 311521832 29253113#0 29253113#1 1232453855 314808459#0 314808459#1 314808459#2 1310268905 313352846#0 313352846#1 313352846#2 313352846#3 1425562350#0 1425562350#1 68883444#0 68883444#1 68883444#2 68883444#3 -68883432#3 420247500#0 420247500#1 420247500#2 420247500#3 -1379754669 -563625044#16 -563625044#15 -563625044#14 -563625044#13 -563625044#12 -563625044#11 -563625044#10 -563625044#9 -563625044#8 -563625044#7 -563625044#6 -563625044#5 -563625044#4 -563625044#3 -563625044#2 -563625044#1 -563625044#0 1347687436#0 1347687436#1 -31521795#3 -31521795#2 31521797#0 31521799#0 31521799#1 -752925208#1 -752925208#0"/>
  </vehicle>
  <vehicle id="ambulance_11" type="emergency" depart="70.0" departLane="best" departSpeed="max">
    <param key="has.bluelight.device" value="true"/>
    <param key="device.bluelight.reactiondist" value="75"/>
    <route edges="-343838636#1 -343838636#0 68883424#2 354533661#0 354533661#1 563625044#16 1379754669 1379754671 1379754668 1386105767 1386105766 1140793694 563566156#3 563566156#4 563566156#5 563566156#6 563566156#7 563566156#8 563566156#9 563566156#10 563566156#11 563566156#12 563566156#13 563566156#14 435248358#0 435248358#1 435248358#2 32002539 311521833 435248372#0 435248372#1 172812920 1156878945 311509463 229422270#0 229422270#1 229422270#2 229422270#3 229422270#4 229422270#5 229422270#6 229422270#7 229422270#8 229422270#9 229422270#10 229422270#11 314943048#0 314943048#1 -339664957#0"/>
  </vehicle>
  <vehicle id="ambulance_12" type="emergency" depart="76.0" departLane="best" departSpeed="max">
    <param key="has.bluelight.device" value="true"/>
    <param key="device.bluelight.reactiondist" value="75"/>
    <route edges="1424773278#7 -1424773278#7 -1424773278#6 -1424773278#5 -1424773278#4 -1424773278#3 -1424773278#2 -1424773278#1 -1424773278#0 -144303549#18 -144303549#17 -144303549#16 -144303549#15 -144303549#14 -144303549#13 -144303549#12 -144303549#11 -144303549#10 -144303549#9 -144303549#8 -144303549#7 -144303549#6 -144303549#5 -144303549#4 -144303549#3 -144303549#2 -144303549#1 -144303549#0 -1424775225#12 -1424775225#11 -1424775225#10 -1424775225#9 -1424775225#8 -1424775225#7 -1424775225#6 -1424775225#5 -1424775225#4 -1424775225#3 -1424775225#2 -1424775225#1 -1424775225#0 -1199771912#2 -1199771912#1 -1199771912#0 313351524#0 313351524#1 313351524#2 311684620 311684621#0 311684621#1 435248360#0 435248360#1 435248360#2 311521832 32002539 311521833 435248372#0"/>
  </vehicle>
  <vehicle id="ambulance_13" type="emergency" depart="82.0" departLane="best" departSpeed="max">
    <param key="has.bluelight.device" value="true"/>
    <param key="device.bluelight.reactiondist" value="75"/>
    <route edges="89914125#7 89914125#8 1209035338#8 1209035338#9 1209035338#10 313352130#0 313352130#1 313352130#2 313352130#3 313352130#4 435248363 1271648423#0"/>
  </vehicle>
  <vehicle id="ambulance_14" type="emergency" depart="88.0" departLane="best" departSpeed="max">
    <param key="has.bluelight.device" value="true"/>
    <param key="device.bluelight.reactiondist" value="75"/>
    <route edges="-1364983154 -1188787260#11 -1188787260#10 -1188787260#9 -1188787260#8 -1188787260#7 -1188787260#6 -1188787260#5 -1188787260#4 -1188787260#3 -1188787260#2 -1188787260#1 -1188787260#0 -29416702#3 -29416702#2 -29416702#1 -29416702#0 313351521#7 313351521#8 313351521#9 313351521#10 1474768422#0 1474768422#1 1474768422#2 1123618292#0 1123618292#1 564179189 311684621#0 311684621#1 435248360#0 435248360#1 435248360#2 311521832 29253113#0 29253113#1 1232453855 314808459#0 1447375075"/>
  </vehicle>
  <vehicle id="ambulance_15" type="emergency" depart="94.0" departLane="best" departSpeed="max">
    <param key="has.bluelight.device" value="true"/>
    <param key="device.bluelight.reactiondist" value="75"/>
    <route edges="89914125#4 89914125#5 89914125#6 89914125#7 89914125#8 1209035338#8 1209035338#9 1209035338#10 313352130#0 313352130#1 313352130#2 313352130#3 313352130#4 435248363 1271648423#0 1271648423#1 311521833 435248372#0 435248372#1 172812920 1156878945 311509463 229422270#0 229422270#1 229422270#2 229422270#3 229422270#4 229422270#5 229422270#6 229422270#7 229422270#8 229422270#9 229422270#10 229422270#11 229422270#12 229422270#13 229422270#14 -1492607271 313351521#4 313351521#5 313351521#6 29416702#0 29416702#1 29416702#2 29416702#3 1188787260#0 1188787260#1 1188787260#2 1188787260#3 -117489793#3 -117489793#2 -117489793#1 1318772548"/>
  </vehicle>
  <vehicle id="ambulance_16" type="emergency" depart="100.0" departLane="best" departSpeed="max">
    <param key="has.bluelight.device" value="true"/>
    <param key="device.bluelight.reactiondist" value="75"/>
    <route edges="-115124193#1 115123764#3 -354533956 -354535408#1 -420247492 115123565 313351521#10 1474768422#0 1474768422#1 1474768422#2 1123618292#0 1123618292#1 564179189 311684621#0 311684621#1 435248360#0 435248360#1 435248360#2 311521832 29253113#0 29253113#1 1232453855 314808459#0 314808459#1 314808459#2 1310268905 313352846#0 313352846#1 313352846#2 313352846#3 313352846#4 313352846#5 313352846#6"/>
  </vehicle>
  <vehicle id="ambulance_17" type="emergency" depart="106.0" departLane="best" departSpeed="max">
    <param key="has.bluelight.device" value="true"/>
    <param key="device.bluelight.reactiondist" value="75"/>
    <route edges="229422270#2 144303621#0 144303621#1 144303621#2 144303621#3 -1199771912#2 -1199771912#1 -1199771912#0 313351524#0 313351524#1 313351524#2 311684620 311684621#0 311684621#1 435248360#0 435248360#1 435248360#2 311521832 29253113#0 29253113#1 1232453855 314808459#0 314808459#1 314808459#2 1310268905 313352846#0 313352846#1 313352846#2 313352846#3 1425562350#0 1425562350#1 68883444#0 68883444#1 68883444#2 68883444#3 -68883432#3 420247500#0 420247500#1 420247500#2 420247500#3 -1379754669 -563625044#16 -563625044#15 -563625044#14 -563625044#13 -563625044#12 -563625044#11 -563625044#10 -563625044#9 -563625044#8 -563625044#7 -563625044#6 -563625044#5 -563625044#4 -563625044#3 -563625044#2 -563625044#1 -563625044#0 1347687436#0 1347687436#1 1347687436#2"/>
  </vehicle>
  <vehicle id="ambulance_18" type="emergency" depart="112.0" departLane="best" departSpeed="max">
    <param key="has.bluelight.device" value="true"/>
    <param key="device.bluelight.reactiondist" value="75"/>
    <route edges="-354535826#1 -354535826#0 311684622#1 435248371 229422268#0 229422268#1 435248361 172812920 1156878945 311509463 229422270#0 229422270#1 229422270#2 229422270#3 229422270#4 229422270#5 229422270#6 229422270#7 229422270#8 229422270#9 229422270#10 229422270#11 229422270#12 229422270#13 229422270#14 -1492607271 313351521#4 313351521#5 313351521#6 29416702#0 29416702#1 29416702#2 29416702#3 1188787260#0 1188787260#1 1188787260#2 1188787260#3 -1188787260#3"/>
  </vehicle>
  <vehicle id="ambulance_19" type="emergency" depart="118.0" departLane="best" departSpeed="max">
    <param key="has.bluelight.device" value="true"/>
    <param key="device.bluelight.reactiondist" value="75"/>
    <route edges="-1191736648 420225795 -144309350#11 -144309350#10 -144309350#9 -144309350#8 -144309350#7 -144309350#6 -144309350#5 -144309350#4 -144309350#3 -144309350#2 -144309350#1 -144309350#0 1227727878 313353057#4 313353057#5 313353057#6 435248371 172812915#0 172812915#1 172812915#2 311522765 311521832 29253113#0 29253113#1 1232453855 314808459#0 314808459#1 314808459#2 1310268905 313352846#0 313352846#1 313352846#2 313352846#3 1425562350#0 1425562350#1 68883444#0 68883444#1 68883444#2 68883444#3 -68883432#3 420247500#0 420247500#1 420247500#2 420247500#3 -1379754669 -563625044#16 -563625044#15 -563625044#14 -563625044#13 -563625044#12 -563625044#11 -563625044#10 -563625044#9 -563625044#8 -563625044#7 -563625044#6 -563625044#5 -563625044#4 -563625044#3 -563625044#2 -563625044#1 -563625044#0 1347687436#0 1347687436#1 -31521795#3 31521795#3"/>
  </vehicle>
  <vehicle id="ambulance_20" type="emergency" depart="124.0" departLane="best" departSpeed="max">
    <param key="has.bluelight.device" value="true"/>
    <param key="device.bluelight.reactiondist" value="75"/>
    <route edges="31521331#1 31521331#2 31521331#3 31521331#4 31521331#5 31521331#6 693018146 563566156#5 563566156#6 563566156#7 563566156#8 563566156#9 563566156#10 563566156#11 563566156#12 563566156#13 563566156#14 435248358#0 435248358#1 435248358#2 32002539 311521833 435248372#0 435248372#1 172812920 1156878945 311509463 229422270#0 229422270#1 229422270#2 229422270#3 229422270#4 229422270#5 229422270#6 229422270#7 229422270#8 229422270#9 317840172#0 317840172#1 317840172#2 1424775225#11 1424775225#12 144303549#0 144303549#1 144303549#2 144303549#3 144303549#4 144303549#5 -144303549#5"/>
  </vehicle>
</routes>
