<routes>
  <vType id="emergency" vClass="emergency" accel="3.2" decel="5.5" sigma="0.1" length="5.0" minGap="1.0" maxSpeed="31.0" speedFactor="1.2" lcAssertive="1.2" lcCooperative="0.4" guiShape="emergency" color="1,0,0"/>
  <vehicle id="ambulance_1" type="emergency" depart="1" departLane="free" departPos="3" departSpeed="0">
    <param key="has.bluelight.device" value="true"/>
    <param key="device.bluelight.reactiondist" value="75"/>
    <param key="home.hospital" value="vikram_hospitals"/>
    <route edges="-308225003#2 1189300565"/>
    <stop edge="-308225003#2" endPos="3" duration="100000"/>
  </vehicle>
  <vehicle id="ambulance_2" type="emergency" depart="2" departLane="free" departPos="5" departSpeed="0">
    <param key="has.bluelight.device" value="true"/>
    <param key="device.bluelight.reactiondist" value="75"/>
    <param key="home.hospital" value="vikram_hospitals"/>
    <route edges="-308225003#2 1189300565"/>
    <stop edge="-308225003#2" endPos="5" duration="100000"/>
  </vehicle>
  <vehicle id="ambulance_3" type="emergency" depart="3" departLane="free" departPos="7" departSpeed="0">
    <param key="has.bluelight.device" value="true"/>
    <param key="device.bluelight.reactiondist" value="75"/>
    <param key="home.hospital" value="vikram_hospitals"/>
    <route edges="-308225003#2 1189300565"/>
    <stop edge="-308225003#2" endPos="7" duration="100000"/>
  </vehicle>
  <vehicle id="ambulance_4" type="emergency" depart="4" departLane="free" departPos="3" departSpeed="0">
    <param key="has.bluelight.device" value="true"/>
    <param key="device.bluelight.reactiondist" value="75"/>
    <param key="home.hospital" value="image_hospitals"/>
    <route edges="-563566157#1 -354532131"/>
    <stop edge="-563566157#1" endPos="3" duration="100000"/>
  </vehicle>
  <vehicle id="ambulance_5" type="emergency" depart="5" departLane="free" departPos="5" departSpeed="0">
    <param key="has.bluelight.device" value="true"/>
    <param key="device.bluelight.reactiondist" value="75"/>
    <param key="home.hospital" value="image_hospitals"/>
    <route edges="-563566157#1 -354532131"/>
    <stop edge="-563566157#1" endPos="5" duration="100000"/>
  </vehicle>
  <vehicle id="ambulance_6" type="emergency" depart="6" departLane="free" departPos="7" departSpeed="0">
    <param key="has.bluelight.device" value="true"/>
    <param key="device.bluelight.reactiondist" value="75"/>
    <param key="home.hospital" value="image_hospitals"/>
    <route edges="-563566157#1 -354532131"/>
    <stop edge="-563566157#1" endPos="7" duration="100000"/>
  </vehicle>
  <vehicle id="ambulance_7" type="emergency" depart="7" departLane="free" departPos="3" departSpeed="0">
    <param key="has.bluelight.device" value="true"/>
    <param key="device.bluelight.reactiondist" value="75"/>
    <param key="home.hospital" value="apollo_dental_clinic_hitech_city"/>
    <route edges="-420247496 -116231008#0"/>
    <stop edge="-420247496" endPos="3" duration="100000"/>
  </vehicle>
  <vehicle id="ambulance_8" type="emergency" depart="8" departLane="free" departPos="5" departSpeed="0">
    <param key="has.bluelight.device" value="true"/>
    <param key="device.bluelight.reactiondist" value="75"/>
    <param key="home.hospital" value="apollo_dental_clinic_hitech_city"/>
    <route edges="-420247496 -116231008#0"/>
    <stop edge="-420247496" endPos="5" duration="100000"/>
  </vehicle>
  <vehicle id="ambulance_9" type="emergency" depart="9" departLane="free" departPos="7" departSpeed="0">
    <param key="has.bluelight.device" value="true"/>
    <param key="device.bluelight.reactiondist" value="75"/>
    <param key="home.hospital" value="apollo_dental_clinic_hitech_city"/>
    <route edges="-420247496 -116231008#0"/>
    <stop edge="-420247496" endPos="7" duration="100000"/>
  </vehicle>
  <vehicle id="ambulance_10" type="emergency" depart="10" departLane="free" departPos="3" departSpeed="0">
    <param key="has.bluelight.device" value="true"/>
    <param key="device.bluelight.reactiondist" value="75"/>
    <param key="home.hospital" value="maxcure_suyosha_woman_child_hospital"/>
    <route edges="-419863070#1 -419863070#0"/>
    <stop edge="-419863070#1" endPos="3" duration="100000"/>
  </vehicle>
  <vehicle id="ambulance_11" type="emergency" depart="11" departLane="free" departPos="5" departSpeed="0">
    <param key="has.bluelight.device" value="true"/>
    <param key="device.bluelight.reactiondist" value="75"/>
    <param key="home.hospital" value="maxcure_suyosha_woman_child_hospital"/>
    <route edges="-419863070#1 -419863070#0"/>
    <stop edge="-419863070#1" endPos="5" duration="100000"/>
  </vehicle>
  <vehicle id="ambulance_12" type="emergency" depart="12" departLane="free" departPos="7" departSpeed="0">
    <param key="has.bluelight.device" value="true"/>
    <param key="device.bluelight.reactiondist" value="75"/>
    <param key="home.hospital" value="maxcure_suyosha_woman_child_hospital"/>
    <route edges="-419863070#1 -419863070#0"/>
    <stop edge="-419863070#1" endPos="7" duration="100000"/>
  </vehicle>
  <vehicle id="ambulance_13" type="emergency" depart="13" departLane="free" departPos="3" departSpeed="0">
    <param key="has.bluelight.device" value="true"/>
    <param key="device.bluelight.reactiondist" value="75"/>
    <param key="home.hospital" value="oakridge_hospitals"/>
    <route edges="-31521830#0 -1377950062"/>
    <stop edge="-31521830#0" endPos="3" duration="100000"/>
  </vehicle>
  <vehicle id="ambulance_14" type="emergency" depart="14" departLane="free" departPos="5" departSpeed="0">
    <param key="has.bluelight.device" value="true"/>
    <param key="device.bluelight.reactiondist" value="75"/>
    <param key="home.hospital" value="oakridge_hospitals"/>
    <route edges="-31521830#0 -1377950062"/>
    <stop edge="-31521830#0" endPos="5" duration="100000"/>
  </vehicle>
  <vehicle id="ambulance_15" type="emergency" depart="15" departLane="free" departPos="7" departSpeed="0">
    <param key="has.bluelight.device" value="true"/>
    <param key="device.bluelight.reactiondist" value="75"/>
    <param key="home.hospital" value="oakridge_hospitals"/>
    <route edges="-31521830#0 -1377950062"/>
    <stop edge="-31521830#0" endPos="7" duration="100000"/>
  </vehicle>
  <vehicle id="ambulance_16" type="emergency" depart="16" departLane="free" departPos="3" departSpeed="0">
    <param key="has.bluelight.device" value="true"/>
    <param key="device.bluelight.reactiondist" value="75"/>
    <param key="home.hospital" value="srinivasa_hospital"/>
    <route edges="354536777#2 363233833#0"/>
    <stop edge="354536777#2" endPos="3" duration="100000"/>
  </vehicle>
  <vehicle id="ambulance_17" type="emergency" depart="17" departLane="free" departPos="5" departSpeed="0">
    <param key="has.bluelight.device" value="true"/>
    <param key="device.bluelight.reactiondist" value="75"/>
    <param key="home.hospital" value="srinivasa_hospital"/>
    <route edges="354536777#2 363233833#0"/>
    <stop edge="354536777#2" endPos="5" duration="100000"/>
  </vehicle>
  <vehicle id="ambulance_18" type="emergency" depart="18" departLane="free" departPos="7" departSpeed="0">
    <param key="has.bluelight.device" value="true"/>
    <param key="device.bluelight.reactiondist" value="75"/>
    <param key="home.hospital" value="srinivasa_hospital"/>
    <route edges="354536777#2 363233833#0"/>
    <stop edge="354536777#2" endPos="7" duration="100000"/>
  </vehicle>
  <vehicle id="ambulance_19" type="emergency" depart="19" departLane="free" departPos="3" departSpeed="0">
    <param key="has.bluelight.device" value="true"/>
    <param key="device.bluelight.reactiondist" value="75"/>
    <param key="home.hospital" value="lifespan_hospitals"/>
    <route edges="-29416702#3 292387100#0"/>
    <stop edge="-29416702#3" endPos="3" duration="100000"/>
  </vehicle>
  <vehicle id="ambulance_20" type="emergency" depart="20" departLane="free" departPos="5" departSpeed="0">
    <param key="has.bluelight.device" value="true"/>
    <param key="device.bluelight.reactiondist" value="75"/>
    <param key="home.hospital" value="lifespan_hospitals"/>
    <route edges="-29416702#3 292387100#0"/>
    <stop edge="-29416702#3" endPos="5" duration="100000"/>
  </vehicle>
  <vehicle id="ambulance_21" type="emergency" depart="21" departLane="free" departPos="7" departSpeed="0">
    <param key="has.bluelight.device" value="true"/>
    <param key="device.bluelight.reactiondist" value="75"/>
    <param key="home.hospital" value="lifespan_hospitals"/>
    <route edges="-29416702#3 292387100#0"/>
    <stop edge="-29416702#3" endPos="7" duration="100000"/>
  </vehicle>
  <vehicle id="ambulance_22" type="emergency" depart="22" departLane="free" departPos="3" departSpeed="0">
    <param key="has.bluelight.device" value="true"/>
    <param key="device.bluelight.reactiondist" value="75"/>
    <param key="home.hospital" value="samanta_homeopathy"/>
    <route edges="172812678#12 172812678#13"/>
    <stop edge="172812678#12" endPos="3" duration="100000"/>
  </vehicle>
  <vehicle id="ambulance_23" type="emergency" depart="23" departLane="free" departPos="5" departSpeed="0">
    <param key="has.bluelight.device" value="true"/>
    <param key="device.bluelight.reactiondist" value="75"/>
    <param key="home.hospital" value="samanta_homeopathy"/>
    <route edges="172812678#12 172812678#13"/>
    <stop edge="172812678#12" endPos="5" duration="100000"/>
  </vehicle>
  <vehicle id="ambulance_24" type="emergency" depart="24" departLane="free" departPos="7" departSpeed="0">
    <param key="has.bluelight.device" value="true"/>
    <param key="device.bluelight.reactiondist" value="75"/>
    <param key="home.hospital" value="samanta_homeopathy"/>
    <route edges="172812678#12 172812678#13"/>
    <stop edge="172812678#12" endPos="7" duration="100000"/>
  </vehicle>
  <vehicle id="ambulance_25" type="emergency" depart="25" departLane="free" departPos="3" departSpeed="0">
    <param key="has.bluelight.device" value="true"/>
    <param key="device.bluelight.reactiondist" value="75"/>
    <param key="home.hospital" value="hegde_hospital"/>
    <route edges="-354533412#0 31521830#5"/>
    <stop edge="-354533412#0" endPos="3" duration="100000"/>
  </vehicle>
  <vehicle id="ambulance_26" type="emergency" depart="26" departLane="free" departPos="5" departSpeed="0">
    <param key="has.bluelight.device" value="true"/>
    <param key="device.bluelight.reactiondist" value="75"/>
    <param key="home.hospital" value="hegde_hospital"/>
    <route edges="-354533412#0 31521830#5"/>
    <stop edge="-354533412#0" endPos="5" duration="100000"/>
  </vehicle>
  <vehicle id="ambulance_27" type="emergency" depart="27" departLane="free" departPos="7" departSpeed="0">
    <param key="has.bluelight.device" value="true"/>
    <param key="device.bluelight.reactiondist" value="75"/>
    <param key="home.hospital" value="hegde_hospital"/>
    <route edges="-354533412#0 31521830#5"/>
    <stop edge="-354533412#0" endPos="7" duration="100000"/>
  </vehicle>
  <vehicle id="ambulance_28" type="emergency" depart="28" departLane="free" departPos="3" departSpeed="0">
    <param key="has.bluelight.device" value="true"/>
    <param key="device.bluelight.reactiondist" value="75"/>
    <param key="home.hospital" value="medicover"/>
    <route edges="28656749#4 28656749#5"/>
    <stop edge="28656749#4" endPos="3" duration="100000"/>
  </vehicle>
  <vehicle id="ambulance_29" type="emergency" depart="29" departLane="free" departPos="5" departSpeed="0">
    <param key="has.bluelight.device" value="true"/>
    <param key="device.bluelight.reactiondist" value="75"/>
    <param key="home.hospital" value="medicover"/>
    <route edges="28656749#4 28656749#5"/>
    <stop edge="28656749#4" endPos="5" duration="100000"/>
  </vehicle>
  <vehicle id="ambulance_30" type="emergency" depart="30" departLane="free" departPos="7" departSpeed="0">
    <param key="has.bluelight.device" value="true"/>
    <param key="device.bluelight.reactiondist" value="75"/>
    <param key="home.hospital" value="medicover"/>
    <route edges="28656749#4 28656749#5"/>
    <stop edge="28656749#4" endPos="7" duration="100000"/>
  </vehicle>
  <vehicle id="ambulance_31" type="emergency" depart="31" departLane="free" departPos="3" departSpeed="0">
    <param key="has.bluelight.device" value="true"/>
    <param key="device.bluelight.reactiondist" value="75"/>
    <param key="home.hospital" value="pace_hospitals"/>
    <route edges="1320062054 -1320062054"/>
    <stop edge="1320062054" endPos="3" duration="100000"/>
  </vehicle>
  <vehicle id="ambulance_32" type="emergency" depart="32" departLane="free" departPos="5" departSpeed="0">
    <param key="has.bluelight.device" value="true"/>
    <param key="device.bluelight.reactiondist" value="75"/>
    <param key="home.hospital" value="pace_hospitals"/>
    <route edges="1320062054 -1320062054"/>
    <stop edge="1320062054" endPos="5" duration="100000"/>
  </vehicle>
  <vehicle id="ambulance_33" type="emergency" depart="33" departLane="free" departPos="7" departSpeed="0">
    <param key="has.bluelight.device" value="true"/>
    <param key="device.bluelight.reactiondist" value="75"/>
    <param key="home.hospital" value="pace_hospitals"/>
    <route edges="1320062054 -1320062054"/>
    <stop edge="1320062054" endPos="7" duration="100000"/>
  </vehicle>
  <vehicle id="ambulance_34" type="emergency" depart="34" departLane="free" departPos="3" departSpeed="0">
    <param key="has.bluelight.device" value="true"/>
    <param key="device.bluelight.reactiondist" value="75"/>
    <param key="home.hospital" value="hospitalway_642171981"/>
    <route edges="68883446 68883441#1"/>
    <stop edge="68883446" endPos="3" duration="100000"/>
  </vehicle>
  <vehicle id="ambulance_35" type="emergency" depart="35" departLane="free" departPos="5" departSpeed="0">
    <param key="has.bluelight.device" value="true"/>
    <param key="device.bluelight.reactiondist" value="75"/>
    <param key="home.hospital" value="hospitalway_642171981"/>
    <route edges="68883446 68883441#1"/>
    <stop edge="68883446" endPos="5" duration="100000"/>
  </vehicle>
  <vehicle id="ambulance_36" type="emergency" depart="36" departLane="free" departPos="7" departSpeed="0">
    <param key="has.bluelight.device" value="true"/>
    <param key="device.bluelight.reactiondist" value="75"/>
    <param key="home.hospital" value="hospitalway_642171981"/>
    <route edges="68883446 68883441#1"/>
    <stop edge="68883446" endPos="7" duration="100000"/>
  </vehicle>
</routes>
