<additional>
  <poly id="vikram_hospitals_ring" type="hospital_ring" color="1,1,1" fill="1" layer="95" shape="2297.94,1543.21 2297.63,1545.54 2296.73,1547.71 2295.30,1549.58 2293.44,1551.01 2291.27,1551.91 2288.94,1552.21 2286.61,1551.91 2284.44,1551.01 2282.57,1549.58 2281.14,1547.71 2280.24,1545.54 2279.94,1543.21 2280.24,1540.88 2281.14,1538.71 2282.57,1536.85 2284.44,1535.42 2286.61,1534.52 2288.94,1534.21 2291.27,1534.52 2293.44,1535.42 2295.30,1536.85 2296.73,1538.71 2297.63,1540.88"/>
  <poly id="vikram_hospitals_core" type="hospital_core" color="0.83,0.09,0.12" fill="1" layer="96" shape="2295.96,1543.21 2295.72,1545.03 2295.02,1546.72 2293.90,1548.18 2292.45,1549.29 2290.75,1549.99 2288.94,1550.23 2287.12,1549.99 2285.43,1549.29 2283.97,1548.18 2282.86,1546.72 2282.16,1545.03 2281.92,1543.21 2282.16,1541.40 2282.86,1539.70 2283.97,1538.25 2285.43,1537.13 2287.12,1536.43 2288.94,1536.19 2290.75,1536.43 2292.45,1537.13 2293.90,1538.25 2295.02,1539.70 2295.72,1541.40"/>
  <poly id="vikram_hospitals_cross_h" type="hospital_cross" color="1,1,1" fill="1" layer="97" shape="2284.44,1541.95 2293.44,1541.95 2293.44,1544.47 2284.44,1544.47"/>
  <poly id="vikram_hospitals_cross_v" type="hospital_cross" color="1,1,1" fill="1" layer="97" shape="2287.68,1538.71 2290.20,1538.71 2290.20,1547.71 2287.68,1547.71"/>
  <poi id="vikram_hospitals_poi" x="2288.94" y="1543.21" color="1,1,1" layer="96" width="3" height="3" type="hospital"/>
  <poi id="vikram_hospitals_label" x="2296.94" y="1551.21" color="1,1,1" layer="97" type="Vikram Hospitals"/>
  <poly id="image_hospitals_ring" type="hospital_ring" color="1,1,1" fill="1" layer="95" shape="1709.50,1966.33 1709.19,1968.66 1708.29,1970.83 1706.86,1972.70 1705.00,1974.13 1702.83,1975.02 1700.50,1975.33 1698.17,1975.02 1696.00,1974.13 1694.13,1972.70 1692.70,1970.83 1691.80,1968.66 1691.50,1966.33 1691.80,1964.00 1692.70,1961.83 1694.13,1959.97 1696.00,1958.54 1698.17,1957.64 1700.50,1957.33 1702.83,1957.64 1705.00,1958.54 1706.86,1959.97 1708.29,1961.83 1709.19,1964.00"/>
  <poly id="image_hospitals_core" type="hospital_core" color="0.83,0.09,0.12" fill="1" layer="96" shape="1707.52,1966.33 1707.28,1968.15 1706.58,1969.84 1705.46,1971.30 1704.01,1972.41 1702.32,1973.11 1700.50,1973.35 1698.68,1973.11 1696.99,1972.41 1695.53,1971.30 1694.42,1969.84 1693.72,1968.15 1693.48,1966.33 1693.72,1964.51 1694.42,1962.82 1695.53,1961.37 1696.99,1960.25 1698.68,1959.55 1700.50,1959.31 1702.32,1959.55 1704.01,1960.25 1705.46,1961.37 1706.58,1962.82 1707.28,1964.51"/>
  <poly id="image_hospitals_cross_h" type="hospital_cross" color="1,1,1" fill="1" layer="97" shape="1696.00,1965.07 1705.00,1965.07 1705.00,1967.59 1696.00,1967.59"/>
  <poly id="image_hospitals_cross_v" type="hospital_cross" color="1,1,1" fill="1" layer="97" shape="1699.24,1961.83 1701.76,1961.83 1701.76,1970.83 1699.24,1970.83"/>
  <poi id="image_hospitals_poi" x="1700.50" y="1966.33" color="1,1,1" layer="96" width="3" height="3" type="hospital"/>
  <poi id="image_hospitals_label" x="1708.50" y="1974.33" color="1,1,1" layer="97" type="Image Hospitals"/>
  <poly id="apollo_dental_clinic_hitech_city_ring" type="hospital_ring" color="1,1,1" fill="1" layer="95" shape="1345.06,2630.26 1344.75,2632.59 1343.85,2634.76 1342.42,2636.63 1340.56,2638.06 1338.39,2638.95 1336.06,2639.26 1333.73,2638.95 1331.56,2638.06 1329.69,2636.63 1328.26,2634.76 1327.37,2632.59 1327.06,2630.26 1327.37,2627.93 1328.26,2625.76 1329.69,2623.90 1331.56,2622.47 1333.73,2621.57 1336.06,2621.26 1338.39,2621.57 1340.56,2622.47 1342.42,2623.90 1343.85,2625.76 1344.75,2627.93"/>
  <poly id="apollo_dental_clinic_hitech_city_core" type="hospital_core" color="0.83,0.09,0.12" fill="1" layer="96" shape="1343.08,2630.26 1342.84,2632.08 1342.14,2633.77 1341.02,2635.23 1339.57,2636.34 1337.88,2637.04 1336.06,2637.28 1334.24,2637.04 1332.55,2636.34 1331.09,2635.23 1329.98,2633.77 1329.28,2632.08 1329.04,2630.26 1329.28,2628.44 1329.98,2626.75 1331.09,2625.30 1332.55,2624.18 1334.24,2623.48 1336.06,2623.24 1337.88,2623.48 1339.57,2624.18 1341.02,2625.30 1342.14,2626.75 1342.84,2628.44"/>
  <poly id="apollo_dental_clinic_hitech_city_cross_h" type="hospital_cross" color="1,1,1" fill="1" layer="97" shape="1331.56,2629.00 1340.56,2629.00 1340.56,2631.52 1331.56,2631.52"/>
  <poly id="apollo_dental_clinic_hitech_city_cross_v" type="hospital_cross" color="1,1,1" fill="1" layer="97" shape="1334.80,2625.76 1337.32,2625.76 1337.32,2634.76 1334.80,2634.76"/>
  <poi id="apollo_dental_clinic_hitech_city_poi" x="1336.06" y="2630.26" color="1,1,1" layer="96" width="3" height="3" type="hospital"/>
  <poi id="apollo_dental_clinic_hitech_city_label" x="1344.06" y="2638.26" color="1,1,1" layer="97" type="Apollo Dental Clinic, Hitech City"/>
  <poly id="maxcure_suyosha_woman_child_hospital_ring" type="hospital_ring" color="1,1,1" fill="1" layer="95" shape="923.19,2198.82 922.89,2201.15 921.99,2203.32 920.56,2205.19 918.69,2206.62 916.52,2207.52 914.19,2207.82 911.86,2207.52 909.69,2206.62 907.83,2205.19 906.40,2203.32 905.50,2201.15 905.19,2198.82 905.50,2196.49 906.40,2194.32 907.83,2192.46 909.69,2191.03 911.86,2190.13 914.19,2189.82 916.52,2190.13 918.69,2191.03 920.56,2192.46 921.99,2194.32 922.89,2196.49"/>
  <poly id="maxcure_suyosha_woman_child_hospital_core" type="hospital_core" color="0.83,0.09,0.12" fill="1" layer="96" shape="921.21,2198.82 920.97,2200.64 920.27,2202.33 919.16,2203.79 917.70,2204.90 916.01,2205.60 914.19,2205.84 912.38,2205.60 910.68,2204.90 909.23,2203.79 908.11,2202.33 907.41,2200.64 907.17,2198.82 907.41,2197.01 908.11,2195.31 909.23,2193.86 910.68,2192.74 912.38,2192.04 914.19,2191.80 916.01,2192.04 917.70,2192.74 919.16,2193.86 920.27,2195.31 920.97,2197.01"/>
  <poly id="maxcure_suyosha_woman_child_hospital_cross_h" type="hospital_cross" color="1,1,1" fill="1" layer="97" shape="909.69,2197.56 918.69,2197.56 918.69,2200.08 909.69,2200.08"/>
  <poly id="maxcure_suyosha_woman_child_hospital_cross_v" type="hospital_cross" color="1,1,1" fill="1" layer="97" shape="912.93,2194.32 915.45,2194.32 915.45,2203.32 912.93,2203.32"/>
  <poi id="maxcure_suyosha_woman_child_hospital_poi" x="914.19" y="2198.82" color="1,1,1" layer="96" width="3" height="3" type="hospital"/>
  <poi id="maxcure_suyosha_woman_child_hospital_label" x="922.19" y="2206.82" color="1,1,1" layer="97" type="MAXCURE SUYOSHA WOMAN &amp; CHILD HOSPITAL"/>
  <poly id="oakridge_hospitals_ring" type="hospital_ring" color="1,1,1" fill="1" layer="95" shape="1649.53,2012.11 1649.23,2014.44 1648.33,2016.61 1646.90,2018.48 1645.03,2019.91 1642.86,2020.81 1640.53,2021.11 1638.20,2020.81 1636.03,2019.91 1634.17,2018.48 1632.74,2016.61 1631.84,2014.44 1631.53,2012.11 1631.84,2009.79 1632.74,2007.61 1634.17,2005.75 1636.03,2004.32 1638.20,2003.42 1640.53,2003.11 1642.86,2003.42 1645.03,2004.32 1646.90,2005.75 1648.33,2007.61 1649.23,2009.79"/>
  <poly id="oakridge_hospitals_core" type="hospital_core" color="0.83,0.09,0.12" fill="1" layer="96" shape="1647.55,2012.11 1647.31,2013.93 1646.61,2015.62 1645.50,2017.08 1644.04,2018.19 1642.35,2018.90 1640.53,2019.13 1638.72,2018.90 1637.02,2018.19 1635.57,2017.08 1634.45,2015.62 1633.75,2013.93 1633.51,2012.11 1633.75,2010.30 1634.45,2008.60 1635.57,2007.15 1637.02,2006.04 1638.72,2005.33 1640.53,2005.09 1642.35,2005.33 1644.04,2006.04 1645.50,2007.15 1646.61,2008.60 1647.31,2010.30"/>
  <poly id="oakridge_hospitals_cross_h" type="hospital_cross" color="1,1,1" fill="1" layer="97" shape="1636.03,2010.85 1645.03,2010.85 1645.03,2013.37 1636.03,2013.37"/>
  <poly id="oakridge_hospitals_cross_v" type="hospital_cross" color="1,1,1" fill="1" layer="97" shape="1639.27,2007.61 1641.79,2007.61 1641.79,2016.61 1639.27,2016.61"/>
  <poi id="oakridge_hospitals_poi" x="1640.53" y="2012.11" color="1,1,1" layer="96" width="3" height="3" type="hospital"/>
  <poi id="oakridge_hospitals_label" x="1648.53" y="2020.11" color="1,1,1" layer="97" type="Oakridge Hospitals"/>
  <poly id="srinivasa_hospital_ring" type="hospital_ring" color="1,1,1" fill="1" layer="95" shape="2584.28,1540.30 2583.97,1542.63 2583.07,1544.80 2581.64,1546.67 2579.78,1548.10 2577.61,1549.00 2575.28,1549.30 2572.95,1549.00 2570.78,1548.10 2568.91,1546.67 2567.48,1544.80 2566.58,1542.63 2566.28,1540.30 2566.58,1537.97 2567.48,1535.80 2568.91,1533.94 2570.78,1532.51 2572.95,1531.61 2575.28,1531.30 2577.61,1531.61 2579.78,1532.51 2581.64,1533.94 2583.07,1535.80 2583.97,1537.97"/>
  <poly id="srinivasa_hospital_core" type="hospital_core" color="0.83,0.09,0.12" fill="1" layer="96" shape="2582.30,1540.30 2582.06,1542.12 2581.36,1543.81 2580.24,1545.27 2578.79,1546.38 2577.09,1547.08 2575.28,1547.32 2573.46,1547.08 2571.77,1546.38 2570.31,1545.27 2569.20,1543.81 2568.50,1542.12 2568.26,1540.30 2568.50,1538.49 2569.20,1536.79 2570.31,1535.34 2571.77,1534.22 2573.46,1533.52 2575.28,1533.28 2577.09,1533.52 2578.79,1534.22 2580.24,1535.34 2581.36,1536.79 2582.06,1538.49"/>
  <poly id="srinivasa_hospital_cross_h" type="hospital_cross" color="1,1,1" fill="1" layer="97" shape="2570.78,1539.04 2579.78,1539.04 2579.78,1541.56 2570.78,1541.56"/>
  <poly id="srinivasa_hospital_cross_v" type="hospital_cross" color="1,1,1" fill="1" layer="97" shape="2574.02,1535.80 2576.54,1535.80 2576.54,1544.80 2574.02,1544.80"/>
  <poi id="srinivasa_hospital_poi" x="2575.28" y="1540.30" color="1,1,1" layer="96" width="3" height="3" type="hospital"/>
  <poi id="srinivasa_hospital_label" x="2583.28" y="1548.30" color="1,1,1" layer="97" type="Srinivasa Hospital"/>
  <poly id="lifespan_hospitals_ring" type="hospital_ring" color="1,1,1" fill="1" layer="95" shape="2385.62,2110.58 2385.32,2112.91 2384.42,2115.08 2382.99,2116.95 2381.12,2118.38 2378.95,2119.28 2376.62,2119.58 2374.29,2119.28 2372.12,2118.38 2370.26,2116.95 2368.83,2115.08 2367.93,2112.91 2367.62,2110.58 2367.93,2108.25 2368.83,2106.08 2370.26,2104.22 2372.12,2102.79 2374.29,2101.89 2376.62,2101.58 2378.95,2101.89 2381.12,2102.79 2382.99,2104.22 2384.42,2106.08 2385.32,2108.25"/>
  <poly id="lifespan_hospitals_core" type="hospital_core" color="0.83,0.09,0.12" fill="1" layer="96" shape="2383.64,2110.58 2383.40,2112.40 2382.70,2114.09 2381.59,2115.55 2380.13,2116.66 2378.44,2117.36 2376.62,2117.60 2374.81,2117.36 2373.11,2116.66 2371.66,2115.55 2370.54,2114.09 2369.84,2112.40 2369.60,2110.58 2369.84,2108.76 2370.54,2107.07 2371.66,2105.62 2373.11,2104.50 2374.81,2103.80 2376.62,2103.56 2378.44,2103.80 2380.13,2104.50 2381.59,2105.62 2382.70,2107.07 2383.40,2108.76"/>
  <poly id="lifespan_hospitals_cross_h" type="hospital_cross" color="1,1,1" fill="1" layer="97" shape="2372.12,2109.32 2381.12,2109.32 2381.12,2111.84 2372.12,2111.84"/>
  <poly id="lifespan_hospitals_cross_v" type="hospital_cross" color="1,1,1" fill="1" layer="97" shape="2375.36,2106.08 2377.88,2106.08 2377.88,2115.08 2375.36,2115.08"/>
  <poi id="lifespan_hospitals_poi" x="2376.62" y="2110.58" color="1,1,1" layer="96" width="3" height="3" type="hospital"/>
  <poi id="lifespan_hospitals_label" x="2384.62" y="2118.58" color="1,1,1" layer="97" type="lifespan hospitals"/>
  <poly id="samanta_homeopathy_ring" type="hospital_ring" color="1,1,1" fill="1" layer="95" shape="1919.03,1625.03 1918.72,1627.36 1917.82,1629.53 1916.39,1631.39 1914.53,1632.82 1912.36,1633.72 1910.03,1634.03 1907.70,1633.72 1905.53,1632.82 1903.66,1631.39 1902.23,1629.53 1901.33,1627.36 1901.03,1625.03 1901.33,1622.70 1902.23,1620.53 1903.66,1618.66 1905.53,1617.23 1907.70,1616.33 1910.03,1616.03 1912.36,1616.33 1914.53,1617.23 1916.39,1618.66 1917.82,1620.53 1918.72,1622.70"/>
  <poly id="samanta_homeopathy_core" type="hospital_core" color="0.83,0.09,0.12" fill="1" layer="96" shape="1917.05,1625.03 1916.81,1626.84 1916.11,1628.54 1914.99,1629.99 1913.54,1631.11 1911.84,1631.81 1910.03,1632.05 1908.21,1631.81 1906.52,1631.11 1905.06,1629.99 1903.95,1628.54 1903.25,1626.84 1903.01,1625.03 1903.25,1623.21 1903.95,1621.52 1905.06,1620.06 1906.52,1618.95 1908.21,1618.25 1910.03,1618.01 1911.84,1618.25 1913.54,1618.95 1914.99,1620.06 1916.11,1621.52 1916.81,1623.21"/>
  <poly id="samanta_homeopathy_cross_h" type="hospital_cross" color="1,1,1" fill="1" layer="97" shape="1905.53,1623.77 1914.53,1623.77 1914.53,1626.29 1905.53,1626.29"/>
  <poly id="samanta_homeopathy_cross_v" type="hospital_cross" color="1,1,1" fill="1" layer="97" shape="1908.77,1620.53 1911.29,1620.53 1911.29,1629.53 1908.77,1629.53"/>
  <poi id="samanta_homeopathy_poi" x="1910.03" y="1625.03" color="1,1,1" layer="96" width="3" height="3" type="hospital"/>
  <poi id="samanta_homeopathy_label" x="1918.03" y="1633.03" color="1,1,1" layer="97" type="Samanta Homeopathy"/>
  <poly id="hegde_hospital_ring" type="hospital_ring" color="1,1,1" fill="1" layer="95" shape="1559.29,1989.32 1558.98,1991.65 1558.09,1993.82 1556.66,1995.68 1554.79,1997.11 1552.62,1998.01 1550.29,1998.32 1547.96,1998.01 1545.79,1997.11 1543.93,1995.68 1542.50,1993.82 1541.60,1991.65 1541.29,1989.32 1541.60,1986.99 1542.50,1984.82 1543.93,1982.95 1545.79,1981.52 1547.96,1980.63 1550.29,1980.32 1552.62,1980.63 1554.79,1981.52 1556.66,1982.95 1558.09,1984.82 1558.98,1986.99"/>
  <poly id="hegde_hospital_core" type="hospital_core" color="0.83,0.09,0.12" fill="1" layer="96" shape="1557.31,1989.32 1557.07,1991.14 1556.37,1992.83 1555.26,1994.28 1553.80,1995.40 1552.11,1996.10 1550.29,1996.34 1548.47,1996.10 1546.78,1995.40 1545.33,1994.28 1544.21,1992.83 1543.51,1991.14 1543.27,1989.32 1543.51,1987.50 1544.21,1985.81 1545.33,1984.35 1546.78,1983.24 1548.47,1982.54 1550.29,1982.30 1552.11,1982.54 1553.80,1983.24 1555.26,1984.35 1556.37,1985.81 1557.07,1987.50"/>
  <poly id="hegde_hospital_cross_h" type="hospital_cross" color="1,1,1" fill="1" layer="97" shape="1545.79,1988.06 1554.79,1988.06 1554.79,1990.58 1545.79,1990.58"/>
  <poly id="hegde_hospital_cross_v" type="hospital_cross" color="1,1,1" fill="1" layer="97" shape="1549.03,1984.82 1551.55,1984.82 1551.55,1993.82 1549.03,1993.82"/>
  <poi id="hegde_hospital_poi" x="1550.29" y="1989.32" color="1,1,1" layer="96" width="3" height="3" type="hospital"/>
  <poi id="hegde_hospital_label" x="1558.29" y="1997.32" color="1,1,1" layer="97" type="Hegde Hospital"/>
  <poly id="medicover_ring" type="hospital_ring" color="1,1,1" fill="1" layer="95" shape="820.91,3172.36 820.60,3174.69 819.71,3176.86 818.28,3178.72 816.41,3180.15 814.24,3181.05 811.91,3181.36 809.58,3181.05 807.41,3180.15 805.55,3178.72 804.12,3176.86 803.22,3174.69 802.91,3172.36 803.22,3170.03 804.12,3167.86 805.55,3166.00 807.41,3164.57 809.58,3163.67 811.91,3163.36 814.24,3163.67 816.41,3164.57 818.28,3166.00 819.71,3167.86 820.60,3170.03"/>
  <poly id="medicover_core" type="hospital_core" color="0.83,0.09,0.12" fill="1" layer="96" shape="818.93,3172.36 818.69,3174.18 817.99,3175.87 816.88,3177.32 815.42,3178.44 813.73,3179.14 811.91,3179.38 810.09,3179.14 808.40,3178.44 806.95,3177.32 805.83,3175.87 805.13,3174.18 804.89,3172.36 805.13,3170.54 805.83,3168.85 806.95,3167.40 808.40,3166.28 810.09,3165.58 811.91,3165.34 813.73,3165.58 815.42,3166.28 816.88,3167.40 817.99,3168.85 818.69,3170.54"/>
  <poly id="medicover_cross_h" type="hospital_cross" color="1,1,1" fill="1" layer="97" shape="807.41,3171.10 816.41,3171.10 816.41,3173.62 807.41,3173.62"/>
  <poly id="medicover_cross_v" type="hospital_cross" color="1,1,1" fill="1" layer="97" shape="810.65,3167.86 813.17,3167.86 813.17,3176.86 810.65,3176.86"/>
  <poi id="medicover_poi" x="811.91" y="3172.36" color="1,1,1" layer="96" width="3" height="3" type="hospital"/>
  <poi id="medicover_label" x="819.91" y="3180.36" color="1,1,1" layer="97" type="Medicover"/>
  <poly id="pace_hospitals_ring" type="hospital_ring" color="1,1,1" fill="1" layer="95" shape="1493.75,2225.77 1493.45,2228.10 1492.55,2230.27 1491.12,2232.14 1489.25,2233.57 1487.08,2234.47 1484.75,2234.77 1482.42,2234.47 1480.25,2233.57 1478.39,2232.14 1476.96,2230.27 1476.06,2228.10 1475.75,2225.77 1476.06,2223.44 1476.96,2221.27 1478.39,2219.41 1480.25,2217.98 1482.42,2217.08 1484.75,2216.77 1487.08,2217.08 1489.25,2217.98 1491.12,2219.41 1492.55,2221.27 1493.45,2223.44"/>
  <poly id="pace_hospitals_core" type="hospital_core" color="0.83,0.09,0.12" fill="1" layer="96" shape="1491.77,2225.77 1491.53,2227.59 1490.83,2229.28 1489.72,2230.74 1488.26,2231.85 1486.57,2232.55 1484.75,2232.79 1482.94,2232.55 1481.24,2231.85 1479.79,2230.74 1478.67,2229.28 1477.97,2227.59 1477.73,2225.77 1477.97,2223.96 1478.67,2222.26 1479.79,2220.81 1481.24,2219.69 1482.94,2218.99 1484.75,2218.75 1486.57,2218.99 1488.26,2219.69 1489.72,2220.81 1490.83,2222.26 1491.53,2223.96"/>
  <poly id="pace_hospitals_cross_h" type="hospital_cross" color="1,1,1" fill="1" layer="97" shape="1480.25,2224.51 1489.25,2224.51 1489.25,2227.03 1480.25,2227.03"/>
  <poly id="pace_hospitals_cross_v" type="hospital_cross" color="1,1,1" fill="1" layer="97" shape="1483.49,2221.27 1486.01,2221.27 1486.01,2230.27 1483.49,2230.27"/>
  <poi id="pace_hospitals_poi" x="1484.75" y="2225.77" color="1,1,1" layer="96" width="3" height="3" type="hospital"/>
  <poi id="pace_hospitals_label" x="1492.75" y="2233.77" color="1,1,1" layer="97" type="Pace Hospitals"/>
  <poly id="hospitalway_642171981_ring" type="hospital_ring" color="1,1,1" fill="1" layer="95" shape="1031.87,2240.08 1031.56,2242.41 1030.66,2244.58 1029.23,2246.44 1027.37,2247.87 1025.20,2248.77 1022.87,2249.08 1020.54,2248.77 1018.37,2247.87 1016.50,2246.44 1015.07,2244.58 1014.17,2242.41 1013.87,2240.08 1014.17,2237.75 1015.07,2235.58 1016.50,2233.71 1018.37,2232.28 1020.54,2231.39 1022.87,2231.08 1025.20,2231.39 1027.37,2232.28 1029.23,2233.71 1030.66,2235.58 1031.56,2237.75"/>
  <poly id="hospitalway_642171981_core" type="hospital_core" color="0.83,0.09,0.12" fill="1" layer="96" shape="1029.89,2240.08 1029.65,2241.90 1028.95,2243.59 1027.83,2245.04 1026.38,2246.16 1024.68,2246.86 1022.87,2247.10 1021.05,2246.86 1019.36,2246.16 1017.90,2245.04 1016.79,2243.59 1016.09,2241.90 1015.85,2240.08 1016.09,2238.26 1016.79,2236.57 1017.90,2235.11 1019.36,2234.00 1021.05,2233.30 1022.87,2233.06 1024.68,2233.30 1026.38,2234.00 1027.83,2235.11 1028.95,2236.57 1029.65,2238.26"/>
  <poly id="hospitalway_642171981_cross_h" type="hospital_cross" color="1,1,1" fill="1" layer="97" shape="1018.37,2238.82 1027.37,2238.82 1027.37,2241.34 1018.37,2241.34"/>
  <poly id="hospitalway_642171981_cross_v" type="hospital_cross" color="1,1,1" fill="1" layer="97" shape="1021.61,2235.58 1024.13,2235.58 1024.13,2244.58 1021.61,2244.58"/>
  <poi id="hospitalway_642171981_poi" x="1022.87" y="2240.08" color="1,1,1" layer="96" width="3" height="3" type="hospital"/>
  <poi id="hospitalway_642171981_label" x="1030.87" y="2248.08" color="1,1,1" layer="97" type="HospitalWay_642171981"/>
</additional>
