<?xml version="1.0" encoding="UTF-8"?>

<!-- generated on 2026-04-09 18:53:59.554002 by Eclipse SUMO randomTrips.py v1_26_0+0000-fa7df22d7f1
<configuration>
    <net-file value="hyderabad.net.xml"/>
    <output-trip-file value="hyderabad_bike.trips.xml"/>
    <route-file value="hyderabad_bike.rou.xml"/>
    <prefix value="bike"/>
    <vehicle-class value="bicycle"/>
    <edge-permission value="bicycle"/>
    <seed value="43"/>
    <end value="14400.0"/>
    <period value="1.714"/>
</configuration>
-->

<routes xmlns:xsi="http://www.w3.org/2001/XMLSchema-instance" xsi:noNamespaceSchemaLocation="http://sumo.dlr.de/xsd/routes_file.xsd">
    <vType id="bike_bicycle" vClass="bicycle"/>
    <trip id="bike0" depart="0.00" from="-117490942#1" to="310896041#3" type="bike_bicycle"/>
    <trip id="bike1" depart="1.71" from="-1424923875#2" to="1188583812" type="bike_bicycle"/>
    <trip id="bike2" depart="3.43" from="1453889409#2" to="354532286#6" type="bike_bicycle"/>
    <trip id="bike3" depart="5.14" from="115123764#0" to="1209035335" type="bike_bicycle"/>
    <trip id="bike4" depart="6.86" from="-1161589712#0" to="117486553#9" type="bike_bicycle"/>
    <trip id="bike5" depart="8.57" from="-568474555" to="354538908#1" type="bike_bicycle"/>
    <trip id="bike6" depart="10.28" from="122449726#0" to="31521803#3" type="bike_bicycle"/>
    <trip id="bike7" depart="12.00" from="-89918951#1" to="-144309358#0" type="bike_bicycle"/>
    <trip id="bike8" depart="13.71" from="354536968" to="354535740" type="bike_bicycle"/>
    <trip id="bike9" depart="15.43" from="-626841084#0" to="-1236272763#0" type="bike_bicycle"/>
    <trip id="bike10" depart="17.14" from="1188787260#3" to="1206084865#1" type="bike_bicycle"/>
    <trip id="bike11" depart="18.85" from="31521794#0" to="144303549#12" type="bike_bicycle"/>
    <trip id="bike12" depart="20.57" from="1188582863" to="1377950062" type="bike_bicycle"/>
    <trip id="bike13" depart="22.28" from="-630850535#1" to="-117507834#1" type="bike_bicycle"/>
    <trip id="bike14" depart="24.00" from="-1188787260#3" to="68883432#5" type="bike_bicycle"/>
    <trip id="bike15" depart="25.71" from="434906530#2" to="1236270970" type="bike_bicycle"/>
    <trip id="bike16" depart="27.42" from="-1236274573#0" to="363362634#2" type="bike_bicycle"/>
    <trip id="bike17" depart="29.14" from="1293642074" to="661338478#2" type="bike_bicycle"/>
    <trip id="bike18" depart="30.85" from="1457102839#1" to="-1236261487#1" type="bike_bicycle"/>
    <trip id="bike19" depart="32.57" from="1424924157#1" to="354531948" type="bike_bicycle"/>
    <trip id="bike20" depart="34.28" from="563566156#10" to="-563625044#5" type="bike_bicycle"/>
    <trip id="bike21" depart="35.99" from="1192031504#1" to="311522764#0" type="bike_bicycle"/>
    <trip id="bike22" depart="37.71" from="-144303582#4" to="354538207" type="bike_bicycle"/>
    <trip id="bike23" depart="39.42" from="31521815#2" to="-1188034079#2" type="bike_bicycle"/>
    <trip id="bike24" depart="41.14" from="1318772548" to="-749966872#0" type="bike_bicycle"/>
    <trip id="bike25" depart="42.85" from="-144309350#3" to="144303562" type="bike_bicycle"/>
    <trip id="bike26" depart="44.56" from="749966872#0" to="1310173480" type="bike_bicycle"/>
    <trip id="bike27" depart="46.28" from="-1271942528" to="1203066321" type="bike_bicycle"/>
    <trip id="bike28" depart="47.99" from="31521803#5" to="735372687" type="bike_bicycle"/>
    <trip id="bike29" depart="49.71" from="309521561" to="-117491904#3" type="bike_bicycle"/>
    <trip id="bike30" depart="51.42" from="749874850#2" to="144303558#1" type="bike_bicycle"/>
    <trip id="bike31" depart="53.13" from="-1199771913#3" to="-1424775225#12" type="bike_bicycle"/>
    <trip id="bike32" depart="54.85" from="-1207656830#0" to="215523103#0" type="bike_bicycle"/>
    <trip id="bike33" depart="56.56" from="-144303549#7" to="354533928#1" type="bike_bicycle"/>
    <trip id="bike34" depart="58.28" from="-1242125761" to="1270836779#3" type="bike_bicycle"/>
    <trip id="bike35" depart="59.99" from="-1082080838" to="563625046#0" type="bike_bicycle"/>
    <trip id="bike36" depart="61.70" from="752925208#2" to="-1424773278#4" type="bike_bicycle"/>
    <trip id="bike37" depart="63.42" from="313351521#4" to="847835516#0" type="bike_bicycle"/>
    <trip id="bike38" depart="65.13" from="563605074#0" to="435248358#2" type="bike_bicycle"/>
    <trip id="bike39" depart="66.85" from="-354538908#1" to="313352130#1" type="bike_bicycle"/>
    <trip id="bike40" depart="68.56" from="117507834#0" to="68883425#0" type="bike_bicycle"/>
    <trip id="bike41" depart="70.27" from="29050956#2" to="354537743" type="bike_bicycle"/>
    <trip id="bike42" depart="71.99" from="354538172#0" to="-847835519#0" type="bike_bicycle"/>
    <trip id="bike43" depart="73.70" from="295150058#5" to="-1236259626" type="bike_bicycle"/>
    <trip id="bike44" depart="75.42" from="-1457102838" to="68883424#1" type="bike_bicycle"/>
    <trip id="bike45" depart="77.13" from="-747519469#0" to="29416702#0" type="bike_bicycle"/>
    <trip id="bike46" depart="78.84" from="1271930968#0" to="-354532683#1" type="bike_bicycle"/>
    <trip id="bike47" depart="80.56" from="1310173481" to="609664036#1" type="bike_bicycle"/>
    <trip id="bike48" depart="82.27" from="-354537167#3" to="-68883422" type="bike_bicycle"/>
    <trip id="bike49" depart="83.99" from="-144309350#2" to="-1451025731#1" type="bike_bicycle"/>
    <trip id="bike50" depart="85.70" from="354534053#2" to="312015898#4" type="bike_bicycle"/>
    <trip id="bike51" depart="87.41" from="749874845" to="229422270#15" type="bike_bicycle"/>
    <trip id="bike52" depart="89.13" from="735372685" to="-31521800" type="bike_bicycle"/>
    <trip id="bike53" depart="90.84" from="-144309350#9" to="-31521787#2" type="bike_bicycle"/>
    <trip id="bike54" depart="92.56" from="-656808829" to="847835517" type="bike_bicycle"/>
    <trip id="bike55" depart="94.27" from="-308225003#1" to="1188256206#0" type="bike_bicycle"/>
    <trip id="bike56" depart="95.98" from="-1188787260#3" to="-117486553#3" type="bike_bicycle"/>
    <trip id="bike57" depart="97.70" from="122449725#0" to="144303582#4" type="bike_bicycle"/>
    <trip id="bike58" depart="99.41" from="1188787260#0" to="625044676#1" type="bike_bicycle"/>
    <trip id="bike59" depart="101.13" from="354538863#1" to="719657013#0" type="bike_bicycle"/>
    <trip id="bike60" depart="102.84" from="1274812543#0" to="-354533412#0" type="bike_bicycle"/>
    <trip id="bike61" depart="104.55" from="-1364983152" to="317840175#1" type="bike_bicycle"/>
    <trip id="bike62" depart="106.27" from="-144303549#8" to="-110018693#0" type="bike_bicycle"/>
    <trip id="bike63" depart="107.98" from="282040812#0" to="-1424773278#5" type="bike_bicycle"/>
    <trip id="bike64" depart="109.70" from="1424924157#0" to="-295150058#2" type="bike_bicycle"/>
    <trip id="bike65" depart="111.41" from="-823406835#3" to="-115140811#0" type="bike_bicycle"/>
    <trip id="bike66" depart="113.12" from="-626841084#1" to="-563625044#10" type="bike_bicycle"/>
    <trip id="bike67" depart="114.84" from="-340819470#2" to="-1425535640" type="bike_bicycle"/>
    <trip id="bike68" depart="116.55" from="1271930968#0" to="309521563#0" type="bike_bicycle"/>
    <trip id="bike69" depart="118.27" from="-1455760724#1" to="-117493070#0" type="bike_bicycle"/>
    <trip id="bike70" depart="119.98" from="-343838636#1" to="310896044#2" type="bike_bicycle"/>
    <trip id="bike71" depart="121.69" from="-354531458#4" to="1455760724#2" type="bike_bicycle"/>
    <trip id="bike72" depart="123.41" from="-1189148941" to="311684622#1" type="bike_bicycle"/>
    <trip id="bike73" depart="125.12" from="-1424775225#6" to="-31521801#3" type="bike_bicycle"/>
    <trip id="bike74" depart="126.84" from="312015898#4" to="1189086638" type="bike_bicycle"/>
    <trip id="bike75" depart="128.55" from="144303581#6" to="-354536458#7" type="bike_bicycle"/>
    <trip id="bike76" depart="130.26" from="1451025731#1" to="-354538172#2" type="bike_bicycle"/>
    <trip id="bike77" depart="131.98" from="117489016#0" to="117491904#4" type="bike_bicycle"/>
    <trip id="bike78" depart="133.69" from="563754491#3" to="31521799#0" type="bike_bicycle"/>
    <trip id="bike79" depart="135.41" from="122449730#2" to="354537882#0" type="bike_bicycle"/>
    <trip id="bike80" depart="137.12" from="1387999458#1" to="313353057#5" type="bike_bicycle"/>
    <trip id="bike81" depart="138.83" from="1189086480#1" to="1377950062" type="bike_bicycle"/>
    <trip id="bike82" depart="140.55" from="-282040812#3" to="656736823#0" type="bike_bicycle"/>
    <trip id="bike83" depart="142.26" from="144303581#2" to="354535672" type="bike_bicycle"/>
    <trip id="bike84" depart="143.98" from="1377754754" to="-117486551#0" type="bike_bicycle"/>
    <trip id="bike85" depart="145.69" from="-1241298087" to="420785467" type="bike_bicycle"/>
    <trip id="bike86" depart="147.40" from="282040812#2" to="563625048#0" type="bike_bicycle"/>
    <trip id="bike87" depart="149.12" from="435248365#1" to="-31770517#1" type="bike_bicycle"/>
    <trip id="bike88" depart="150.83" from="823406835#2" to="144303581#4" type="bike_bicycle"/>
    <trip id="bike89" depart="152.55" from="312015898#6" to="1236254786#1" type="bike_bicycle"/>
    <trip id="bike90" depart="154.26" from="-331215059#1" to="1192031504#0" type="bike_bicycle"/>
    <trip id="bike91" depart="155.97" from="1161644561" to="-354537787" type="bike_bicycle"/>
    <trip id="bike92" depart="157.69" from="-365689934#3" to="117491904#0" type="bike_bicycle"/>
    <trip id="bike93" depart="159.40" from="-340821776#2" to="-144303549#3" type="bike_bicycle"/>
    <trip id="bike94" depart="161.12" from="354531408#0" to="-693003570#3" type="bike_bicycle"/>
    <trip id="bike95" depart="162.83" from="-528636493#0" to="354531458#4" type="bike_bicycle"/>
    <trip id="bike96" depart="164.54" from="250952413#1" to="117494541#1" type="bike_bicycle"/>
    <trip id="bike97" depart="166.26" from="-354535826#1" to="354532683#0" type="bike_bicycle"/>
    <trip id="bike98" depart="167.97" from="-314943048#4" to="1188583942" type="bike_bicycle"/>
    <trip id="bike99" depart="169.69" from="-609664036#6" to="89914125#5" type="bike_bicycle"/>
    <trip id="bike100" depart="171.40" from="-31521795#0" to="1425561378" type="bike_bicycle"/>
    <trip id="bike101" depart="173.11" from="1189381154#0" to="-117507834#0" type="bike_bicycle"/>
    <trip id="bike102" depart="174.83" from="-144303636#2" to="435248360#2" type="bike_bicycle"/>
    <trip id="bike103" depart="176.54" from="317840176#1" to="-31357948#4" type="bike_bicycle"/>
    <trip id="bike104" depart="178.26" from="-144303621#3" to="68883429#1" type="bike_bicycle"/>
    <trip id="bike105" depart="179.97" from="131606126#0" to="313351526#1" type="bike_bicycle"/>
    <trip id="bike106" depart="181.68" from="563625044#16" to="-354532785" type="bike_bicycle"/>
    <trip id="bike107" depart="183.40" from="1188034079#2" to="609664036#5" type="bike_bicycle"/>
    <trip id="bike108" depart="185.11" from="-144309350#3" to="-354532080#3" type="bike_bicycle"/>
    <trip id="bike109" depart="186.83" from="420225787" to="354537248" type="bike_bicycle"/>
    <trip id="bike110" depart="188.54" from="1188787933" to="-1425535640" type="bike_bicycle"/>
    <trip id="bike111" depart="190.25" from="354535271#1" to="-365689934#8" type="bike_bicycle"/>
    <trip id="bike112" depart="191.97" from="31357948#5" to="-354532080#3" type="bike_bicycle"/>
    <trip id="bike113" depart="193.68" from="-144303549#6" to="309521563#2" type="bike_bicycle"/>
    <trip id="bike114" depart="195.40" from="-68883432#5" to="-753891929#2" type="bike_bicycle"/>
    <trip id="bike115" depart="197.11" from="1073735983" to="1188256206#2" type="bike_bicycle"/>
    <trip id="bike116" depart="198.82" from="117485262#1" to="1455760724#4" type="bike_bicycle"/>
    <trip id="bike117" depart="200.54" from="-1238780339" to="265235093" type="bike_bicycle"/>
    <trip id="bike118" depart="202.25" from="117490942#0" to="354535271#2" type="bike_bicycle"/>
    <trip id="bike119" depart="203.97" from="-354533287" to="229422268#0" type="bike_bicycle"/>
    <trip id="bike120" depart="205.68" from="-1457099743" to="310896044#1" type="bike_bicycle"/>
    <trip id="bike121" depart="207.39" from="1474768422#0" to="1274812543#1" type="bike_bicycle"/>
    <trip id="bike122" depart="209.11" from="117487522" to="696091867" type="bike_bicycle"/>
    <trip id="bike123" depart="210.82" from="-420247493" to="-1206084865#2" type="bike_bicycle"/>
    <trip id="bike124" depart="212.54" from="-354537882#1" to="-117492277#2" type="bike_bicycle"/>
    <trip id="bike125" depart="214.25" from="435248360#1" to="354536619#4" type="bike_bicycle"/>
    <trip id="bike126" depart="215.96" from="-144309350#12" to="144303636#4" type="bike_bicycle"/>
    <trip id="bike127" depart="217.68" from="-1456892752#1" to="363362634#0" type="bike_bicycle"/>
    <trip id="bike128" depart="219.39" from="-752925204#1" to="-1188787260#11" type="bike_bicycle"/>
    <trip id="bike129" depart="221.11" from="144303562" to="-1207656830#1" type="bike_bicycle"/>
    <trip id="bike130" depart="222.82" from="435248371" to="656511297#2" type="bike_bicycle"/>
    <trip id="bike131" depart="224.53" from="1424773278#5" to="-340819475#1" type="bike_bicycle"/>
    <trip id="bike132" depart="226.25" from="31521798#0" to="-117490942#0" type="bike_bicycle"/>
    <trip id="bike133" depart="227.96" from="-1271371553" to="-363233833#0" type="bike_bicycle"/>
    <trip id="bike134" depart="229.68" from="-1189093898" to="420203765#3" type="bike_bicycle"/>
    <trip id="bike135" depart="231.39" from="1451025731#0" to="354533945#0" type="bike_bicycle"/>
    <trip id="bike136" depart="233.10" from="144303636#4" to="-31521803#2" type="bike_bicycle"/>
    <trip id="bike137" depart="234.82" from="-354532131" to="144303578#1" type="bike_bicycle"/>
    <trip id="bike138" depart="236.53" from="339665123#0" to="144303621#3" type="bike_bicycle"/>
    <trip id="bike139" depart="238.25" from="-354536619#2" to="354533287" type="bike_bicycle"/>
    <trip id="bike140" depart="239.96" from="-750355722" to="144303636#11" type="bike_bicycle"/>
    <trip id="bike141" depart="241.67" from="354536777#0" to="172812920" type="bike_bicycle"/>
    <trip id="bike142" depart="243.39" from="1156878945" to="1424924010#0" type="bike_bicycle"/>
    <trip id="bike143" depart="245.10" from="-1456885366" to="117489016#0" type="bike_bicycle"/>
    <trip id="bike144" depart="246.82" from="354535271#0" to="1190543895" type="bike_bicycle"/>
    <trip id="bike145" depart="248.53" from="-115140811#1" to="354534971" type="bike_bicycle"/>
    <trip id="bike146" depart="250.24" from="-144303549#8" to="-117488389" type="bike_bicycle"/>
    <trip id="bike147" depart="251.96" from="1273746462#2" to="339665123#1" type="bike_bicycle"/>
    <trip id="bike148" depart="253.67" from="-1271930968#1" to="117491904#3" type="bike_bicycle"/>
    <trip id="bike149" depart="255.39" from="1161590911" to="-1424773278#0" type="bike_bicycle"/>
    <trip id="bike150" depart="257.10" from="144303549#18" to="-354531458#3" type="bike_bicycle"/>
    <trip id="bike151" depart="258.81" from="229422268#1" to="1210674806" type="bike_bicycle"/>
    <trip id="bike152" depart="260.53" from="1189093898" to="-31770517#0" type="bike_bicycle"/>
    <trip id="bike153" depart="262.24" from="31521331#17" to="-115123565" type="bike_bicycle"/>
    <trip id="bike154" depart="263.96" from="-354536114#5" to="-1242125858" type="bike_bicycle"/>
    <trip id="bike155" depart="265.67" from="-1207364313" to="-115123565" type="bike_bicycle"/>
    <trip id="bike156" depart="267.38" from="1189093319" to="-1189144228#2" type="bike_bicycle"/>
    <trip id="bike157" depart="269.10" from="-1271959665" to="117486555" type="bike_bicycle"/>
    <trip id="bike158" depart="270.81" from="144303636#3" to="1320062054" type="bike_bicycle"/>
    <trip id="bike159" depart="272.53" from="631944862#1" to="354534053#3" type="bike_bicycle"/>
    <trip id="bike160" depart="274.24" from="847835519#2" to="-693003570#0" type="bike_bicycle"/>
    <trip id="bike161" depart="275.95" from="420247500#1" to="-420247491" type="bike_bicycle"/>
    <trip id="bike162" depart="277.67" from="-354532597" to="116232810#2" type="bike_bicycle"/>
    <trip id="bike163" depart="279.38" from="-117485262#0" to="313353057#3" type="bike_bicycle"/>
    <trip id="bike164" depart="281.10" from="-1214377187#0" to="144303582#11" type="bike_bicycle"/>
    <trip id="bike165" depart="282.81" from="-1188785893" to="117485262#3" type="bike_bicycle"/>
    <trip id="bike166" depart="284.52" from="-31770517#4" to="68883444#0" type="bike_bicycle"/>
    <trip id="bike167" depart="286.24" from="-354534205" to="-68883444#2" type="bike_bicycle"/>
    <trip id="bike168" depart="287.95" from="-354535672" to="-1424773278#7" type="bike_bicycle"/>
    <trip id="bike169" depart="289.67" from="144303584#1" to="-354538863#2" type="bike_bicycle"/>
    <trip id="bike170" depart="291.38" from="-354531408#0" to="-416342895#0" type="bike_bicycle"/>
    <trip id="bike171" depart="293.09" from="-419863070#2" to="354532358" type="bike_bicycle"/>
    <trip id="bike172" depart="294.81" from="-29050956#6" to="-1424773278#3" type="bike_bicycle"/>
    <trip id="bike173" depart="296.52" from="-354537787" to="1364983154" type="bike_bicycle"/>
    <trip id="bike174" depart="298.24" from="-354532594" to="-1292375665#0" type="bike_bicycle"/>
    <trip id="bike175" depart="299.95" from="-420225830" to="749685526" type="bike_bicycle"/>
    <trip id="bike176" depart="301.66" from="-89914127#0" to="-144309354#0" type="bike_bicycle"/>
    <trip id="bike177" depart="303.38" from="1453889409#1" to="313352846#9" type="bike_bicycle"/>
    <trip id="bike178" depart="305.09" from="-339665319" to="144303623#2" type="bike_bicycle"/>
    <trip id="bike179" depart="306.81" from="-1236272763#0" to="-419863068#1" type="bike_bicycle"/>
    <trip id="bike180" depart="308.52" from="-354533412#0" to="354532785" type="bike_bicycle"/>
    <trip id="bike181" depart="310.23" from="1424775225#6" to="1234808162" type="bike_bicycle"/>
    <trip id="bike182" depart="311.95" from="117489026#0" to="-354532286#5" type="bike_bicycle"/>
    <trip id="bike183" depart="313.66" from="354534971" to="354532785" type="bike_bicycle"/>
    <trip id="bike184" depart="315.38" from="-68883416#1" to="110018698#0" type="bike_bicycle"/>
    <trip id="bike185" depart="317.09" from="31521331#25" to="-144309350#1" type="bike_bicycle"/>
    <trip id="bike186" depart="318.80" from="-144309355" to="-68883429#4" type="bike_bicycle"/>
    <trip id="bike187" depart="320.52" from="1425535641" to="-420241032#0" type="bike_bicycle"/>
    <trip id="bike188" depart="322.23" from="1189086480#0" to="1234888545" type="bike_bicycle"/>
    <trip id="bike189" depart="323.95" from="625044676#1" to="1388205248#1" type="bike_bicycle"/>
    <trip id="bike190" depart="325.66" from="-354531244#3" to="144309350#5" type="bike_bicycle"/>
    <trip id="bike191" depart="327.37" from="1236259626" to="-354538908#1" type="bike_bicycle"/>
    <trip id="bike192" depart="329.09" from="311522765" to="-1140793694" type="bike_bicycle"/>
    <trip id="bike193" depart="330.80" from="823436079" to="420203765#3" type="bike_bicycle"/>
    <trip id="bike194" depart="332.52" from="-1188787260#11" to="313351521#4" type="bike_bicycle"/>
    <trip id="bike195" depart="334.23" from="-1364983154" to="847835519#1" type="bike_bicycle"/>
    <trip id="bike196" depart="335.94" from="115122471#2" to="31521331#7" type="bike_bicycle"/>
    <trip id="bike197" depart="337.66" from="-317840176#2" to="1457102839#1" type="bike_bicycle"/>
    <trip id="bike198" depart="339.37" from="-117486553#8" to="354532945" type="bike_bicycle"/>
    <trip id="bike199" depart="341.09" from="-340821776#1" to="-144309350#8" type="bike_bicycle"/>
    <trip id="bike200" depart="342.80" from="1099221936#0" to="1209035338#9" type="bike_bicycle"/>
    <trip id="bike201" depart="344.51" from="-117507711#3" to="-144303636#4" type="bike_bicycle"/>
    <trip id="bike202" depart="346.23" from="-656563063" to="1274812543#2" type="bike_bicycle"/>
    <trip id="bike203" depart="347.94" from="282040812#2" to="-1428239651" type="bike_bicycle"/>
    <trip id="bike204" depart="349.66" from="354533557#1" to="-696091867" type="bike_bicycle"/>
    <trip id="bike205" depart="351.37" from="-1199766636" to="656472170#1" type="bike_bicycle"/>
    <trip id="bike206" depart="353.08" from="1318772548" to="31521814#1" type="bike_bicycle"/>
    <trip id="bike207" depart="354.80" from="-144303549#6" to="1192020174" type="bike_bicycle"/>
    <trip id="bike208" depart="356.51" from="-354532912#0" to="-354534264" type="bike_bicycle"/>
    <trip id="bike209" depart="358.23" from="-68883437#4" to="144303623#2" type="bike_bicycle"/>
    <trip id="bike210" depart="359.94" from="115140811#2" to="310896042" type="bike_bicycle"/>
    <trip id="bike211" depart="361.65" from="847835274#0" to="1424923875#2" type="bike_bicycle"/>
    <trip id="bike212" depart="363.37" from="750355715" to="-68883425#0" type="bike_bicycle"/>
    <trip id="bike213" depart="365.08" from="354536076#1" to="310896041#7" type="bike_bicycle"/>
    <trip id="bike214" depart="366.80" from="-1161589712#1" to="354535672" type="bike_bicycle"/>
    <trip id="bike215" depart="368.51" from="528672536" to="563566156#9" type="bike_bicycle"/>
    <trip id="bike216" depart="370.22" from="-354538863#2" to="313353059#4" type="bike_bicycle"/>
    <trip id="bike217" depart="371.94" from="354534070" to="117492277#0" type="bike_bicycle"/>
    <trip id="bike218" depart="373.65" from="625044677#2" to="1236272324#2" type="bike_bicycle"/>
    <trip id="bike219" depart="375.37" from="-31521798#0" to="117486551#0" type="bike_bicycle"/>
    <trip id="bike220" depart="377.08" from="1314842032" to="-753891929#2" type="bike_bicycle"/>
    <trip id="bike221" depart="378.79" from="-354537513#1" to="144303636#7" type="bike_bicycle"/>
    <trip id="bike222" depart="380.51" from="-354536521#0" to="1199358325" type="bike_bicycle"/>
    <trip id="bike223" depart="382.22" from="-1200765088" to="-420203783#2" type="bike_bicycle"/>
    <trip id="bike224" depart="383.94" from="-354537387" to="-754187236#1" type="bike_bicycle"/>
    <trip id="bike225" depart="385.65" from="-117487257#1" to="847835518" type="bike_bicycle"/>
    <trip id="bike226" depart="387.36" from="-237961625#0" to="-115122471#0" type="bike_bicycle"/>
    <trip id="bike227" depart="389.08" from="1293642074" to="-117490393#3" type="bike_bicycle"/>
    <trip id="bike228" depart="390.79" from="1250755338#2" to="609664036#4" type="bike_bicycle"/>
    <trip id="bike229" depart="392.51" from="-1188626901" to="1189086480#0" type="bike_bicycle"/>
    <trip id="bike230" depart="394.22" from="354535783#1" to="-339665319" type="bike_bicycle"/>
    <trip id="bike231" depart="395.93" from="-1373631964" to="-1188787260#0" type="bike_bicycle"/>
    <trip id="bike232" depart="397.65" from="229422270#7" to="317840172#2" type="bike_bicycle"/>
    <trip id="bike233" depart="399.36" from="-824496123" to="-68883429#0" type="bike_bicycle"/>
    <trip id="bike234" depart="401.08" from="823406832#0" to="-354531232#2" type="bike_bicycle"/>
    <trip id="bike235" depart="402.79" from="340821776#2" to="354533939#1" type="bike_bicycle"/>
    <trip id="bike236" depart="404.50" from="115123764#0" to="354531636#0" type="bike_bicycle"/>
    <trip id="bike237" depart="406.22" from="-354537167#1" to="563625044#6" type="bike_bicycle"/>
    <trip id="bike238" depart="407.93" from="313353057#1" to="144303619#0" type="bike_bicycle"/>
    <trip id="bike239" depart="409.65" from="354536114#5" to="250952413#1" type="bike_bicycle"/>
    <trip id="bike240" depart="411.36" from="365689934#2" to="-68883432#6" type="bike_bicycle"/>
    <trip id="bike241" depart="413.07" from="-626551966#0" to="68883441#1" type="bike_bicycle"/>
    <trip id="bike242" depart="414.79" from="-919092393" to="-411644832#1" type="bike_bicycle"/>
    <trip id="bike243" depart="416.50" from="354531636#1" to="-68883432#4" type="bike_bicycle"/>
    <trip id="bike244" depart="418.22" from="-753891929#1" to="1364924270" type="bike_bicycle"/>
    <trip id="bike245" depart="419.93" from="-1212649884#2" to="354537167#3" type="bike_bicycle"/>
    <trip id="bike246" depart="421.64" from="1388205248#0" to="-117507711#1" type="bike_bicycle"/>
    <trip id="bike247" depart="423.36" from="-1234889031" to="-354537167#0" type="bike_bicycle"/>
    <trip id="bike248" depart="425.07" from="-847835518" to="354533412#0" type="bike_bicycle"/>
    <trip id="bike249" depart="426.79" from="340821777" to="31521331#19" type="bike_bicycle"/>
    <trip id="bike250" depart="428.50" from="312377017#0" to="1234887855" type="bike_bicycle"/>
    <trip id="bike251" depart="430.21" from="-1212649884#1" to="-68883430#1" type="bike_bicycle"/>
    <trip id="bike252" depart="431.93" from="313352865#0" to="-117486553#1" type="bike_bicycle"/>
    <trip id="bike253" depart="433.64" from="-31521798#0" to="-1156581840" type="bike_bicycle"/>
    <trip id="bike254" depart="435.36" from="-354537047#1" to="-420267026#1" type="bike_bicycle"/>
    <trip id="bike255" depart="437.07" from="117487257#5" to="-144309358#1" type="bike_bicycle"/>
    <trip id="bike256" depart="438.78" from="122449725#1" to="-1357186894#2" type="bike_bicycle"/>
    <trip id="bike257" depart="440.50" from="317840176#2" to="354536619#4" type="bike_bicycle"/>
    <trip id="bike258" depart="442.21" from="144309354#2" to="1322857695" type="bike_bicycle"/>
    <trip id="bike259" depart="443.93" from="144303574" to="117492277#0" type="bike_bicycle"/>
    <trip id="bike260" depart="445.64" from="-1424773278#8" to="563625044#10" type="bike_bicycle"/>
    <trip id="bike261" depart="447.35" from="-309521563#4" to="420203765#3" type="bike_bicycle"/>
    <trip id="bike262" depart="449.07" from="-656736823#0" to="1295973402" type="bike_bicycle"/>
    <trip id="bike263" depart="450.78" from="1424775225#2" to="-735372677#0" type="bike_bicycle"/>
    <trip id="bike264" depart="452.50" from="847835519#1" to="354538187#0" type="bike_bicycle"/>
    <trip id="bike265" depart="454.21" from="-661338478#2" to="-635999973" type="bike_bicycle"/>
    <trip id="bike266" depart="455.92" from="420267026#0" to="68883430#0" type="bike_bicycle"/>
    <trip id="bike267" depart="457.64" from="-420247494" to="-1424923875#2" type="bike_bicycle"/>
    <trip id="bike268" depart="459.35" from="1199771913#0" to="1188583812" type="bike_bicycle"/>
    <trip id="bike269" depart="461.07" from="110012642" to="144303561#0" type="bike_bicycle"/>
    <trip id="bike270" depart="462.78" from="-115123891#0" to="1347687436#3" type="bike_bicycle"/>
    <trip id="bike271" depart="464.49" from="-1066022258#1" to="1364920297" type="bike_bicycle"/>
    <trip id="bike272" depart="466.21" from="609664036#0" to="292387100#4" type="bike_bicycle"/>
    <trip id="bike273" depart="467.92" from="1188791710" to="-753918928#0" type="bike_bicycle"/>
    <trip id="bike274" depart="469.64" from="-29050956#4" to="1188226273#1" type="bike_bicycle"/>
    <trip id="bike275" depart="471.35" from="735372685" to="-144303582#1" type="bike_bicycle"/>
    <trip id="bike276" depart="473.06" from="1424923875#1" to="1236272324#1" type="bike_bicycle"/>
    <trip id="bike277" depart="474.78" from="-122449730#0" to="-340819472#1" type="bike_bicycle"/>
    <trip id="bike278" depart="476.49" from="-339665791" to="-1236254154#1" type="bike_bicycle"/>
    <trip id="bike279" depart="478.21" from="-1234888385" to="354536281" type="bike_bicycle"/>
    <trip id="bike280" depart="479.92" from="-354535826#0" to="229422270#6" type="bike_bicycle"/>
    <trip id="bike281" depart="481.63" from="117491904#1" to="1236254157#1" type="bike_bicycle"/>
    <trip id="bike282" depart="483.35" from="115123764#3" to="-117488999#0" type="bike_bicycle"/>
    <trip id="bike283" depart="485.06" from="-1189093898" to="-1424773278#6" type="bike_bicycle"/>
    <trip id="bike284" depart="486.78" from="354532286#5" to="310896044#3" type="bike_bicycle"/>
    <trip id="bike285" depart="488.49" from="-309521563#1" to="1424773278#1" type="bike_bicycle"/>
    <trip id="bike286" depart="490.20" from="144309354#0" to="-354535787" type="bike_bicycle"/>
    <trip id="bike287" depart="491.92" from="-1457102839#0" to="-117487257#2" type="bike_bicycle"/>
    <trip id="bike288" depart="493.63" from="435248368" to="-656450108" type="bike_bicycle"/>
    <trip id="bike289" depart="495.35" from="1377754756" to="752925204#2" type="bike_bicycle"/>
    <trip id="bike290" depart="497.06" from="-1451284110" to="-354533412#1" type="bike_bicycle"/>
    <trip id="bike291" depart="498.77" from="-354538680" to="-354535963" type="bike_bicycle"/>
    <trip id="bike292" depart="500.49" from="117502894#3" to="-116232809#0" type="bike_bicycle"/>
    <trip id="bike293" depart="502.20" from="354531598#0" to="919062539" type="bike_bicycle"/>
    <trip id="bike294" depart="503.92" from="-282040812#1" to="1095373409" type="bike_bicycle"/>
    <trip id="bike295" depart="505.63" from="-626551966#0" to="312015898#0" type="bike_bicycle"/>
    <trip id="bike296" depart="507.34" from="-752925208#0" to="369833476#1" type="bike_bicycle"/>
    <trip id="bike297" depart="509.06" from="68883437#4" to="-354533407#2" type="bike_bicycle"/>
    <trip id="bike298" depart="510.77" from="-1289039572" to="144303577" type="bike_bicycle"/>
    <trip id="bike299" depart="512.49" from="-1188787260#6" to="115140811#2" type="bike_bicycle"/>
    <trip id="bike300" depart="514.20" from="-1451284110" to="354536164#0" type="bike_bicycle"/>
    <trip id="bike301" depart="515.91" from="-745633087" to="354536619#0" type="bike_bicycle"/>
    <trip id="bike302" depart="517.63" from="1321825524#1" to="31521331#6" type="bike_bicycle"/>