<?xml version="1.0" encoding="UTF-8"?>

<!-- generated on 2026-04-04 10:05:38.459540 by Eclipse SUMO randomTrips.py v1_26_0+0000-fa7df22d7f1
<configuration>
    <net-file value="hyderabad.net.xml"/>
    <output-trip-file value="hyderabad.trips.xml"/>
    <route-file value="hyderabad_car.rou.xml"/>
    <end value="14400.0"/>
    <period value="0.714"/>
</configuration>
-->

<routes xmlns:xsi="http://www.w3.org/2001/XMLSchema-instance" xsi:noNamespaceSchemaLocation="http://sumo.dlr.de/xsd/routes_file.xsd">
    <trip id="0" depart="0.00" from="144303636#2" to="-117486553#6"/>
    <trip id="1" depart="0.71" from="-354532286#2" to="-31521795#0"/>
    <trip id="2" depart="1.43" from="313351525#5" to="292387100#4"/>
    <trip id="3" depart="2.14" from="420247500#3" to="-1250755338#1"/>
    <trip id="4" depart="2.86" from="-823406832#1" to="-117487257#5"/>
    <trip id="5" depart="3.57" from="-295150058#4" to="1250755338#2"/>
    <trip id="6" depart="4.28" from="-117486555" to="-29416702#0"/>
    <trip id="7" depart="5.00" from="144309354#2" to="1373589614#1"/>
    <trip id="8" depart="5.71" from="-308225000#1" to="144303581#1"/>
    <trip id="9" depart="6.43" from="339702537" to="-115123764#0"/>
    <trip id="10" depart="7.14" from="339664957#0" to="311684622#1"/>
    <trip id="11" depart="7.85" from="-365689934#1" to="-144303617#4"/>
    <trip id="12" depart="8.57" from="68883432#0" to="-563625044#11"/>
    <trip id="13" depart="9.28" from="-1271929735" to="-1318772548"/>
    <trip id="14" depart="10.00" from="354536458#0" to="144303609#0"/>
    <trip id="15" depart="10.71" from="339665123#0" to="313353060#4"/>
    <trip id="16" depart="11.42" from="-654438532#3" to="1388199385"/>
    <trip id="17" depart="12.14" from="354533939#0" to="144309350#12"/>
    <trip id="18" depart="12.85" from="354537745#0" to="144303549#5"/>
    <trip id="19" depart="13.57" from="295150058#2" to="-117492277#4"/>
    <trip id="20" depart="14.28" from="-31357619" to="-354536458#3"/>
    <trip id="21" depart="14.99" from="-1212649884#0" to="-31521814#1"/>
    <trip id="22" depart="15.71" from="-1315746129" to="-354535271#1"/>
    <trip id="23" depart="16.42" from="144303621#3" to="-68883440#1"/>
    <trip id="24" depart="17.14" from="-563625044#16" to="-312377017#4"/>
    <trip id="25" depart="17.85" from="-354531244#4" to="652168743"/>
    <trip id="26" depart="18.56" from="144309350#9" to="144303621#2"/>
    <trip id="27" depart="19.28" from="-144303609#2" to="-752925208#0"/>
    <trip id="28" depart="19.99" from="823406832#0" to="1474768422#1"/>
    <trip id="29" depart="20.71" from="354536076#1" to="31770517#2"/>
    <trip id="30" depart="21.42" from="-31357948#0" to="-117488999#1"/>
    <trip id="31" depart="22.13" from="-354536458#3" to="-354533557#3"/>
    <trip id="32" depart="22.85" from="-29050956#9" to="661338478#2"/>
    <trip id="33" depart="23.56" from="368748996#3" to="-365689934#6"/>
    <trip id="34" depart="24.28" from="1453889409#0" to="1073735983"/>
    <trip id="35" depart="24.99" from="563625044#0" to="1188621313#0"/>
    <trip id="36" depart="25.70" from="-343838636#1" to="-339664957#0"/>
    <trip id="37" depart="26.42" from="1321825524#0" to="-354532912#1"/>
    <trip id="38" depart="27.13" from="1424773278#7" to="435248372#0"/>
    <trip id="39" depart="27.85" from="-68883444#3" to="-31521787#0"/>
    <trip id="40" depart="28.56" from="89914125#7" to="1271648423#0"/>
    <trip id="41" depart="29.27" from="-1250755338#2" to="-117493070#1"/>
    <trip id="42" depart="29.99" from="-1364983154" to="1447375075"/>
    <trip id="43" depart="30.70" from="31521815#0" to="117486553#0"/>
    <trip id="44" depart="31.42" from="-1188793190#1" to="-753891929#0"/>
    <trip id="45" depart="32.13" from="89914125#4" to="1318772548"/>
    <trip id="46" depart="32.84" from="749874845" to="363334764#1"/>
    <trip id="47" depart="33.56" from="-115124193#1" to="313352846#6"/>
    <trip id="48" depart="34.27" from="229422270#2" to="1347687436#2"/>
    <trip id="49" depart="34.99" from="-354531244#4" to="1492607271"/>
    <trip id="50" depart="35.70" from="-1386105766" to="117489339"/>
    <trip id="51" depart="36.41" from="116232652" to="68883432#4"/>
    <trip id="52" depart="37.13" from="368748996#2" to="-354532934#0"/>
    <trip id="53" depart="37.84" from="1188787260#4" to="-1453889409#1"/>
    <trip id="54" depart="38.56" from="563566157#1" to="416342890"/>
    <trip id="55" depart="39.27" from="-354535012" to="1456892752#1"/>
    <trip id="56" depart="39.98" from="144303561#0" to="-144303609#0"/>
    <trip id="57" depart="40.70" from="314808459#2" to="1364920296#0"/>
    <trip id="58" depart="41.41" from="31521787#2" to="1321825524#1"/>
    <trip id="59" depart="42.13" from="-1060418438#1" to="-420203765#3"/>
    <trip id="60" depart="42.84" from="-117486096#0" to="631944862#1"/>
    <trip id="61" depart="43.55" from="368749000" to="354536076#1"/>
    <trip id="62" depart="44.27" from="-354535826#1" to="-1188787260#3"/>
    <trip id="63" depart="44.98" from="368748997" to="68883424#1"/>
    <trip id="64" depart="45.70" from="-1238504239" to="1209035338#10"/>
    <trip id="65" depart="46.41" from="-1191736648" to="31521795#3"/>
    <trip id="66" depart="47.12" from="31521331#1" to="-144303549#5"/>
    <trip id="67" depart="47.84" from="117490333#1" to="1387999457#0"/>
    <trip id="68" depart="48.55" from="-823406834#1" to="-31357615#1"/>
    <trip id="69" depart="49.27" from="1250755338#3" to="313353060#4"/>
    <trip id="70" depart="49.98" from="-215523272#1" to="-363362634#1"/>
    <trip id="71" depart="50.69" from="89914125#1" to="172813236"/>
    <trip id="72" depart="51.41" from="1140793693#1" to="1291297328"/>
    <trip id="73" depart="52.12" from="-1424775225#5" to="-31521797#0"/>
    <trip id="74" depart="52.84" from="-363334764#1" to="144303578#5"/>
    <trip id="75" depart="53.55" from="-31357948#3" to="-31521787#2"/>
    <trip id="76" depart="54.26" from="-1192031504#1" to="1453889409#1"/>
    <trip id="77" depart="54.98" from="-31357948#0" to="563566157#0"/>
    <trip id="78" depart="55.69" from="354537167#0" to="-1199766634#0"/>
    <trip id="79" depart="56.41" from="-31521795#2" to="28656749#3"/>
    <trip id="80" depart="57.12" from="-29416702#2" to="-144303561#2"/>
    <trip id="81" depart="57.83" from="631944862#2" to="1428239652"/>
    <trip id="82" depart="58.55" from="117489790" to="339665319"/>
    <trip id="83" depart="59.26" from="-1292375665#1" to="117487522"/>
    <trip id="84" depart="59.98" from="-823406835#1" to="1188791710"/>
    <trip id="85" depart="60.69" from="313351521#1" to="29050956#6"/>
    <trip id="86" depart="61.40" from="-747519469#1" to="-563625044#3"/>
    <trip id="87" depart="62.12" from="354537745#0" to="-339665319"/>
    <trip id="88" depart="62.83" from="-1453889409#1" to="117501961"/>
    <trip id="89" depart="63.55" from="-823406832#1" to="-354535271#2"/>
    <trip id="90" depart="64.26" from="-31521822#0" to="609663726#2"/>
    <trip id="91" depart="64.97" from="115123891#0" to="363362634#1"/>
    <trip id="92" depart="65.69" from="1291221202" to="-117507711#2"/>
    <trip id="93" depart="66.40" from="89918952#1" to="354536259"/>
    <trip id="94" depart="67.12" from="740928029#1" to="609664036#3"/>
    <trip id="95" depart="67.83" from="354536458#3" to="-144309350#10"/>
    <trip id="96" depart="68.54" from="-693022178#1" to="-1188787260#5"/>
    <trip id="97" depart="69.26" from="-354531244#0" to="339665123#0"/>
    <trip id="98" depart="69.97" from="116232810#0" to="117486553#10"/>
    <trip id="99" depart="70.69" from="68883432#1" to="89914125#4"/>
    <trip id="100" depart="71.40" from="-144303582#8" to="-354536619#4"/>
    <trip id="101" depart="72.11" from="740928029#0" to="144303549#9"/>
    <trip id="102" depart="72.83" from="-1188787260#11" to="144303567#1"/>
    <trip id="103" depart="73.54" from="-1212649884#1" to="-1456892753"/>
    <trip id="104" depart="74.26" from="1424924157#0" to="292387100#0"/>
    <trip id="105" depart="74.97" from="-31521789#1" to="-1425535640"/>
    <trip id="106" depart="75.68" from="420247496" to="-331215059#2"/>
    <trip id="107" depart="76.40" from="1424924011#0" to="144309350#2"/>
    <trip id="108" depart="77.11" from="-754187237" to="144303565"/>
    <trip id="109" depart="77.83" from="1209035338#4" to="652168742#0"/>
    <trip id="110" depart="78.54" from="-282040790#0" to="313352130#1"/>
    <trip id="111" depart="79.25" from="-31521795#3" to="1082080838"/>
    <trip id="112" depart="79.97" from="172812915#0" to="-354536895#0"/>
    <trip id="113" depart="80.68" from="-354536458#4" to="31521331#29"/>
    <trip id="114" depart="81.40" from="-1199766634#2" to="1188583812"/>
    <trip id="115" depart="82.11" from="89918951#1" to="89914125#6"/>
    <trip id="116" depart="82.82" from="-1199766635#2" to="-31357619"/>
    <trip id="117" depart="83.54" from="416663642#2" to="420203783#3"/>
    <trip id="118" depart="84.25" from="-563625044#15" to="-144303621#2"/>
    <trip id="119" depart="84.97" from="354534355#1" to="312377017#0"/>
    <trip id="120" depart="85.68" from="354532286#2" to="-354536777#2"/>
    <trip id="121" depart="86.39" from="1474768422#0" to="656511297#0"/>
    <trip id="122" depart="87.11" from="-144303549#16" to="-1424923875#2"/>
    <trip id="123" depart="87.82" from="-1357186894#1" to="1424773278#0"/>
    <trip id="124" depart="88.54" from="-354532124" to="144303617#0"/>
    <trip id="125" depart="89.25" from="311522765" to="-295150058#3"/>
    <trip id="126" depart="89.96" from="144303621#0" to="-354533412#0"/>
    <trip id="127" depart="90.68" from="117502894#1" to="563566157#0"/>
    <trip id="128" depart="91.39" from="354536164#0" to="-1291297328"/>
    <trip id="129" depart="92.11" from="-823406835#1" to="-354535077#1"/>
    <trip id="130" depart="92.82" from="-110012642" to="31521815#3"/>
    <trip id="131" depart="93.53" from="144303623#3" to="-354532683#2"/>
    <trip id="132" depart="94.25" from="313352846#2" to="1387999459"/>
    <trip id="133" depart="94.96" from="-89918951#1" to="-115123893#1"/>
    <trip id="134" depart="95.68" from="-1199771912#2" to="420247493"/>
    <trip id="135" depart="96.39" from="435248372#1" to="1377754754"/>
    <trip id="136" depart="97.10" from="354534962#0" to="144303561#5"/>
    <trip id="137" depart="97.82" from="-144303581#1" to="-144303549#2"/>
    <trip id="138" depart="98.53" from="-354535994" to="528672537"/>
    <trip id="139" depart="99.25" from="31521830#3" to="363334764#1"/>
    <trip id="140" depart="99.96" from="435248360#2" to="-31357612#0"/>
    <trip id="141" depart="100.67" from="-31521819" to="-1364983154"/>
    <trip id="142" depart="101.39" from="31521789#1" to="420247496"/>
    <trip id="143" depart="102.10" from="-749874850#2" to="144309350#5"/>
    <trip id="144" depart="102.82" from="-144303582#8" to="631944862#3"/>
    <trip id="145" depart="103.53" from="354538172#1" to="752925203"/>
    <trip id="146" depart="104.24" from="354531244#1" to="420241032#1"/>
    <trip id="147" depart="104.96" from="-117486553#6" to="31357633#4"/>
    <trip id="148" depart="105.67" from="-354538172#0" to="631944863#1"/>
    <trip id="149" depart="106.39" from="317840175#1" to="365689934#5"/>
    <trip id="150" depart="107.10" from="354531244#1" to="-354533557#1"/>
    <trip id="151" depart="107.81" from="31521801#2" to="-1424773278#6"/>
    <trip id="152" depart="108.53" from="365689934#2" to="354538908#2"/>
    <trip id="153" depart="109.24" from="-312377017#0" to="354534087"/>
    <trip id="154" depart="109.96" from="117486553#10" to="-354538172#0"/>
    <trip id="155" depart="110.67" from="31521830#1" to="-31521801#0"/>
    <trip id="156" depart="111.38" from="-117486553#3" to="-29050956#2"/>
    <trip id="157" depart="112.10" from="-354537167#2" to="365689934#5"/>
    <trip id="158" depart="112.81" from="735051874" to="-354535408#0"/>
    <trip id="159" depart="113.53" from="144303636#7" to="1123618292#1"/>
    <trip id="160" depart="114.24" from="752925204#1" to="1347687436#0"/>
    <trip id="161" depart="114.95" from="652168738#0" to="-1424923875#1"/>
    <trip id="162" depart="115.67" from="749815856#0" to="-1453889409#1"/>
    <trip id="163" depart="116.38" from="68883440#1" to="-354533522#2"/>
    <trip id="164" depart="117.10" from="-1364983151" to="117489339"/>
    <trip id="165" depart="117.81" from="313351521#0" to="-365689934#3"/>
    <trip id="166" depart="118.52" from="144303549#6" to="1271929735"/>
    <trip id="167" depart="119.24" from="-68883414" to="144303549#3"/>
    <trip id="168" depart="119.95" from="-31770517#4" to="313351521#6"/>
    <trip id="169" depart="120.67" from="-1073735983" to="609664036#1"/>
    <trip id="170" depart="121.38" from="1250755338#1" to="313352846#3"/>
    <trip id="171" depart="122.09" from="313352846#4" to="29050956#1"/>
    <trip id="172" depart="122.81" from="-420267026#1" to="-1192031504#0"/>
    <trip id="173" depart="123.52" from="1474768422#2" to="-420247500#0"/>
    <trip id="174" depart="124.24" from="-354536360" to="354536895#0"/>
    <trip id="175" depart="124.95" from="311684622#0" to="-354537047#0"/>
    <trip id="176" depart="125.66" from="-354536076#1" to="115123893#1"/>
    <trip id="177" depart="126.38" from="-747519469#0" to="-354536619#1"/>
    <trip id="178" depart="127.09" from="-1424924157#1" to="117486096#1"/>
    <trip id="179" depart="127.81" from="652168739" to="29253113#1"/>
    <trip id="180" depart="128.52" from="435248371" to="144303636#6"/>
    <trip id="181" depart="129.23" from="-354535167" to="1379754671"/>
    <trip id="182" depart="129.95" from="-1060418438#1" to="-354536164#0"/>
    <trip id="183" depart="130.66" from="-995168985" to="144303558#1"/>
    <trip id="184" depart="131.38" from="1453563537" to="1188787260#9"/>
    <trip id="185" depart="132.09" from="117489793#1" to="563566156#13"/>
    <trip id="186" depart="132.80" from="31521830#3" to="-144309350#6"/>
    <trip id="187" depart="133.52" from="-1238498389" to="1274812543#4"/>
    <trip id="188" depart="134.23" from="144303617#5" to="-563614372"/>
    <trip id="189" depart="134.95" from="354532286#5" to="31521331#28"/>
    <trip id="190" depart="135.66" from="172812915#2" to="-31521795#3"/>
    <trip id="191" depart="136.37" from="-215523103#0" to="-117486553#4"/>
    <trip id="192" depart="137.09" from="-31521803#1" to="1192031504#0"/>
    <trip id="193" depart="137.80" from="354536458#6" to="-1199766635#2"/>
    <trip id="194" depart="138.52" from="-752925208#4" to="1451291593"/>
    <trip id="195" depart="139.23" from="-1456416530" to="311684374#1"/>
    <trip id="196" depart="139.94" from="1188404087#0" to="-317840175#2"/>
    <trip id="197" depart="140.66" from="1453889409#2" to="-115122471#1"/>
    <trip id="198" depart="141.37" from="313353060#0" to="31521815#0"/>
    <trip id="199" depart="142.09" from="-1357186894#0" to="117486553#5"/>
    <trip id="200" depart="142.80" from="-144309350#0" to="68883441#0"/>
    <trip id="201" depart="143.51" from="1199771913#2" to="-117507711#1"/>
    <trip id="202" depart="144.23" from="-31521815#3" to="354536895#1"/>
    <trip id="203" depart="144.94" from="117485262#1" to="354532597"/>
    <trip id="204" depart="145.66" from="1424924157#1" to="68883429#3"/>
    <trip id="205" depart="146.37" from="420247500#1" to="144303636#1"/>
    <trip id="206" depart="147.08" from="311684621#1" to="1250755338#1"/>
    <trip id="207" depart="147.80" from="354533956" to="1379754671"/>
    <trip id="208" depart="148.51" from="435248358#1" to="31521331#10"/>
    <trip id="209" depart="149.23" from="117490331" to="-354532286#5"/>
    <trip id="210" depart="149.94" from="-31521803#7" to="1456885366"/>
    <trip id="211" depart="150.65" from="31521331#1" to="1310173480"/>
    <trip id="212" depart="151.37" from="1270836779#2" to="-144303581#1"/>
    <trip id="213" depart="152.08" from="-314943048#0" to="311521832"/>
    <trip id="214" depart="152.80" from="308225000#0" to="-1189078969"/>
    <trip id="215" depart="153.51" from="-749983338" to="1364983154"/>
    <trip id="216" depart="154.22" from="-821839413" to="563566156#9"/>
    <trip id="217" depart="154.94" from="1424773278#5" to="311522765"/>
    <trip id="218" depart="155.65" from="354536619#6" to="31521801#3"/>
    <trip id="219" depart="156.37" from="-656511297#1" to="-115122471#2"/>
    <trip id="220" depart="157.08" from="-420183227" to="31521331#4"/>
    <trip id="221" depart="157.79" from="354536542#1" to="68883432#3"/>
    <trip id="222" depart="158.51" from="-754187236#3" to="31521331#2"/>
    <trip id="223" depart="159.22" from="1273746462#2" to="144303607#1"/>
    <trip id="224" depart="159.94" from="-308225000#1" to="-31521787#0"/>
    <trip id="225" depart="160.65" from="1136698959#0" to="-117487257#3"/>
    <trip id="226" depart="161.36" from="-354538908#2" to="29416702#3"/>
    <trip id="227" depart="162.08" from="-749815856#1" to="-144303636#9"/>
    <trip id="228" depart="162.79" from="117487257#5" to="-144303549#3"/>
    <trip id="229" depart="163.51" from="144303582#9" to="-117486556"/>
    <trip id="230" depart="164.22" from="-68883432#5" to="1424924010#0"/>
    <trip id="231" depart="164.93" from="-117486956" to="172812678#13"/>
    <trip id="232" depart="165.65" from="-144303549#3" to="1188787260#11"/>
    <trip id="233" depart="166.36" from="-117507834#1" to="-752925205"/>
    <trip id="234" depart="167.08" from="-292387100#0" to="-420241032#0"/>
    <trip id="235" depart="167.79" from="31357948#5" to="-752925205"/>
    <trip id="236" depart="168.50" from="313353060#3" to="354536076#2"/>
    <trip id="237" depart="169.22" from="-117486096#0" to="1364920296#0"/>
    <trip id="238" depart="169.93" from="995168960" to="-656563379"/>
    <trip id="239" depart="170.65" from="144309354#2" to="32002539"/>
    <trip id="240" depart="171.36" from="144309357#1" to="31521331#6"/>
    <trip id="241" depart="172.07" from="661338478#2" to="-29416702#2"/>
    <trip id="242" depart="172.79" from="-117486551#0" to="-144303607#1"/>
    <trip id="243" depart="173.50" from="-1424924011#0" to="28656749#4"/>
    <trip id="244" depart="174.22" from="1330892197#2" to="-314943048#3"/>
    <trip id="245" depart="174.93" from="29416668" to="31521803#2"/>
    <trip id="246" depart="175.64" from="-144303621#0" to="144303617#6"/>
    <trip id="247" depart="176.36" from="313353058" to="-1424775225#9"/>
    <trip id="248" depart="177.07" from="354532540" to="747519469#1"/>
    <trip id="249" depart="177.79" from="-1364924270" to="-117486553#7"/>
    <trip id="250" depart="178.50" from="-354536114#5" to="29253113#1"/>
    <trip id="251" depart="179.21" from="310896044#4" to="-1199771913#2"/>
    <trip id="252" depart="179.93" from="28656749#4" to="144309358#1"/>
    <trip id="253" depart="180.64" from="-1320062054" to="31521822#1"/>
    <trip id="254" depart="181.36" from="-1424775225#6" to="754187236#0"/>
    <trip id="255" depart="182.07" from="-89918952#0" to="-747519469#1"/>
    <trip id="256" depart="182.78" from="1189078968#1" to="-563625044#7"/>
    <trip id="257" depart="183.50" from="354536458#6" to="354535077#3"/>
    <trip id="258" depart="184.21" from="-1335381518" to="693018146"/>
    <trip id="259" depart="184.93" from="144303621#3" to="354535783#2"/>
    <trip id="260" depart="185.64" from="308225003#0" to="117489793#1"/>
    <trip id="261" depart="186.35" from="313351524#2" to="747983502"/>
    <trip id="262" depart="187.07" from="-354532080#0" to="354533557#0"/>
    <trip id="263" depart="187.78" from="1250755338#1" to="1207068840"/>
    <trip id="264" depart="188.50" from="1123618292#1" to="31357612#2"/>
    <trip id="265" depart="189.21" from="354534053#0" to="-1250755338#0"/>
    <trip id="266" depart="189.92" from="419863070#0" to="-317840175#2"/>
    <trip id="267" depart="190.64" from="117486956" to="144303623#1"/>
    <trip id="268" depart="191.35" from="354536516" to="-1455760724#5"/>
    <trip id="269" depart="192.07" from="-292387100#1" to="354532286#3"/>
    <trip id="270" depart="192.78" from="295150056" to="-354535077#0"/>
    <trip id="271" depart="193.49" from="-115123893#0" to="68883425#0"/>
    <trip id="272" depart="194.21" from="-1238504239" to="313352846#5"/>
    <trip id="273" depart="194.92" from="117502894#1" to="31521791"/>
    <trip id="274" depart="195.64" from="117507711#1" to="354532080#1"/>
    <trip id="275" depart="196.35" from="-1271938558#1" to="-31521789#2"/>
    <trip id="276" depart="197.06" from="29050956#0" to="-354538172#3"/>
    <trip id="277" depart="197.78" from="1388199385" to="1190543895"/>
    <trip id="278" depart="198.49" from="1236264493#0" to="117486553#6"/>
    <trip id="279" depart="199.21" from="313353057#2" to="-420247500#2"/>
    <trip id="280" depart="199.92" from="295150057#3" to="-354533939#1"/>
    <trip id="281" depart="200.63" from="-31521830#2" to="-1425562350#0"/>
    <trip id="282" depart="201.35" from="-1455760724#3" to="-1424924158"/>
    <trip id="283" depart="202.06" from="1241298609" to="31521798#1"/>
    <trip id="284" depart="202.78" from="-144309357#0" to="-31357948#5"/>
    <trip id="285" depart="203.49" from="117493070#0" to="313353057#4"/>
    <trip id="286" depart="204.20" from="749983338" to="1315746128"/>
    <trip id="287" depart="204.92" from="-354533408" to="-1357186894#2"/>
    <trip id="288" depart="205.63" from="-1455760727#1" to="-31521800"/>
    <trip id="289" depart="206.35" from="-144309350#4" to="-116231008#0"/>
    <trip id="290" depart="207.06" from="1240970407" to="-354534355#1"/>
    <trip id="291" depart="207.77" from="749876168#1" to="1424773278#0"/>
    <trip id="292" depart="208.49" from="292387100#2" to="-144303549#17"/>
    <trip id="293" depart="209.20" from="354538908#2" to="1212649884#0"/>
    <trip id="294" depart="209.92" from="365689934#3" to="144303549#14"/>
    <trip id="295" depart="210.63" from="117488999#0" to="117490942#3"/>
    <trip id="296" depart="211.34" from="-144309355" to="-117507711#4"/>
    <trip id="297" depart="212.06" from="652168741" to="1199766635#2"/>
    <trip id="298" depart="212.77" from="354532934#0" to="1136698959#2"/>
    <trip id="299" depart="213.49" from="-1199766635#4" to="1451284517"/>
    <trip id="300" depart="214.20" from="824563425" to="-1424924011#1"/>
    <trip id="301" depart="214.91" from="314943048#4" to="144303617#4"/>
    <trip id="302" depart="215.63" from="31521803#6" to="-31521798#0"/>
    <trip id="303" depart="216.34" from="1209035338#4" to="117502894#3"/>
    <trip id="304" depart="217.06" from="115123764#3" to="363334764#0"/>
    <trip id="305" depart="217.77" from="823406833" to="-354538172#1"/>
    <trip id="306" depart="218.48" from="144303582#6" to="144303621#3"/>
    <trip id="307" depart="219.20" from="313352846#0" to="68883424#3"/>
    <trip id="308" depart="219.91" from="-29050956#11" to="-31357612#3"/>
    <trip id="309" depart="220.63" from="1456884703" to="-144303621#0"/>
    <trip id="310" depart="221.34" from="-144303636#4" to="-1199771913#0"/>
    <trip id="311" depart="222.05" from="-1088131854" to="117502894#3"/>
    <trip id="312" depart="222.77" from="1424924010#3" to="-354536458#8"/>
    <trip id="313" depart="223.48" from="-314943048#0" to="313351521#10"/>
    <trip id="314" depart="224.20" from="295150057#3" to="117507834#2"/>
    <trip id="315" depart="224.91" from="282040790#0" to="609663727"/>
    <trip id="316" depart="225.62" from="31521801#4" to="144309354#3"/>
    <trip id="317" depart="226.34" from="-823436079" to="1373589614#0"/>
    <trip id="318" depart="227.05" from="144309350#8" to="563625044#1"/>
    <trip id="319" depart="227.77" from="354533557#3" to="-1199766634#2"/>
    <trip id="320" depart="228.48" from="-144303617#5" to="-354538863#1"/>
    <trip id="321" depart="229.19" from="313353059#1" to="1425562350#0"/>
    <trip id="322" depart="229.91" from="-354533661#1" to="-144303549#12"/>
    <trip id="323" depart="230.62" from="282040812#2" to="311710510#4"/>
    <trip id="324" depart="231.34" from="1188232100" to="-1236261487#0"/>
    <trip id="325" depart="232.05" from="-117490942#3" to="117488999#0"/>
    <trip id="326" depart="232.76" from="-354536619#3" to="-339702537"/>
    <trip id="327" depart="233.48" from="-1250755338#3" to="735384027#0"/>
    <trip id="328" depart="234.19" from="354535077#2" to="144303549#16"/>
    <trip id="329" depart="234.91" from="678830576#1" to="919092393"/>
    <trip id="330" depart="235.62" from="172812915#1" to="-354533928#0"/>
    <trip id="331" depart="236.33" from="-117491904#0" to="31521787#1"/>
    <trip id="332" depart="237.05" from="117489016#1" to="215523103#3"/>
    <trip id="333" depart="237.76" from="563625044#11" to="-1455760724#4"/>
    <trip id="334" depart="238.48" from="1424773279" to="1455760727#0"/>
    <trip id="335" depart="239.19" from="117507711#3" to="-1289039572"/>
    <trip id="336" depart="239.90" from="-416663634" to="-420267026#1"/>
    <trip id="337" depart="240.62" from="172812678#6" to="354538908#0"/>
    <trip id="338" depart="241.33" from="-354537745#1" to="311509463"/>
    <trip id="339" depart="242.05" from="-354533661#0" to="68883414"/>
    <trip id="340" depart="242.76" from="354532080#1" to="1387999457#1"/>
    <trip id="341" depart="243.47" from="116232810#0" to="-365689934#5"/>
    <trip id="342" depart="244.19" from="-354536619#5" to="749876168#3"/>
    <trip id="343" depart="244.90" from="-749815856#0" to="1274812543#2"/>
    <trip id="344" depart="245.62" from="754187236#3" to="229422270#17"/>
    <trip id="345" depart="246.33" from="1271371553" to="116231008#1"/>
    <trip id="346" depart="247.04" from="-1451064962" to="-68883432#6"/>
    <trip id="347" depart="247.76" from="31357626" to="144309355"/>
    <trip id="348" depart="248.47" from="31357948#2" to="-295150058#3"/>
    <trip id="349" depart="249.19" from="1275264019" to="609664036#6"/>
    <trip id="350" depart="249.90" from="1140793693#1" to="311684622#1"/>
    <trip id="351" depart="250.61" from="144303561#0" to="-31770517#0"/>
    <trip id="352" depart="251.33" from="-144303594#1" to="1387999458#1"/>
    <trip id="353" depart="252.04" from="1302232356" to="-1293642074"/>
    <trip id="354" depart="252.76" from="823406835#3" to="563625044#6"/>
    <trip id="355" depart="253.47" from="117486553#2" to="-1424924010#3"/>
    <trip id="356" depart="254.18" from="311522764#0" to="1270836780#4"/>
    <trip id="357" depart="254.90" from="-354532232" to="354536114#6"/>
    <trip id="358" depart="255.61" from="752925203" to="-317840175#2"/>
    <trip id="359" depart="256.33" from="1292375665#0" to="-753918928#1"/>
    <trip id="360" depart="257.04" from="563625046#1" to="1270836780#2"/>
    <trip id="361" depart="257.75" from="368749001" to="365689934#4"/>
    <trip id="362" depart="258.47" from="-354532286#5" to="354531916"/>
    <trip id="363" depart="259.18" from="-753891928" to="652168741"/>
    <trip id="364" depart="259.90" from="1189087696" to="354535012"/>
    <trip id="365" depart="260.61" from="-354533408" to="-354536777#0"/>
    <trip id="366" depart="261.32" from="1424775225#11" to="919062539"/>
    <trip id="367" depart="262.04" from="117502894#3" to="-144303594#1"/>
    <trip id="368" depart="262.75" from="1250755338#2" to="-626841084#0"/>
    <trip id="369" depart="263.47" from="1293642074" to="1365261687"/>
    <trip id="370" depart="264.18" from="116232810#1" to="-419863070#2"/>
    <trip id="371" depart="264.89" from="-1451284517" to="311684621#1"/>
    <trip id="372" depart="265.61" from="1364983152" to="-31521815#1"/>
    <trip id="373" depart="266.32" from="31521331#4" to="-117491904#5"/>
    <trip id="374" depart="267.04" from="313352865#1" to="312377017#4"/>
    <trip id="375" depart="267.75" from="1474768422#1" to="354535012"/>
    <trip id="376" depart="268.46" from="752925204#0" to="1234811545"/>
    <trip id="377" depart="269.18" from="-117490393#1" to="1241273941"/>
    <trip id="378" depart="269.89" from="1424775225#8" to="368749000"/>
    <trip id="379" depart="270.61" from="365689934#7" to="117490942#3"/>
    <trip id="380" depart="271.32" from="1212649884#0" to="1188582622"/>
    <trip id="381" depart="272.03" from="311710510#4" to="115124193#3"/>
    <trip id="382" depart="272.75" from="1453563537" to="-144303617#1"/>
    <trip id="383" depart="273.46" from="117488999#0" to="749876168#0"/>
    <trip id="384" depart="274.18" from="-363362634#0" to="310896044#3"/>
    <trip id="385" depart="274.89" from="354536521#0" to="363233833#0"/>
    <trip id="386" depart="275.60" from="-656511297#1" to="-368748996#2"/>
    <trip id="387" depart="276.32" from="311684620" to="31521795#0"/>
    <trip id="388" depart="277.03" from="365689934#2" to="-117489793#1"/>
    <trip id="389" depart="277.75" from="-1189300565" to="1453889409#1"/>
    <trip id="390" depart="278.46" from="563625044#8" to="89918951#0"/>
    <trip id="391" depart="279.17" from="313353057#4" to="117489026#1"/>
    <trip id="392" depart="279.89" from="-1304607404" to="1455760724#4"/>
    <trip id="393" depart="280.60" from="365689934#3" to="117492277#1"/>
    <trip id="394" depart="281.32" from="29050956#4" to="563566156#5"/>
    <trip id="395" depart="282.03" from="-117494541#0" to="354532237"/>
    <trip id="396" depart="282.74" from="-354534053#2" to="-749876169#1"/>
    <trip id="397" depart="283.46" from="-144303578#0" to="1322857695"/>
    <trip id="398" depart="284.17" from="1334236322#3" to="354532080#0"/>
    <trip id="399" depart="284.89" from="-144303623#2" to="-1212649884#3"/>
    <trip id="400" depart="285.60" from="363362634#1" to="144309350#3"/>
    <trip id="401" depart="286.31" from="-31521799#0" to="563625044#5"/>
    <trip id="402" depart="287.03" from="-144303567#0" to="1188787260#10"/>
    <trip id="403" depart="287.74" from="-31770517#2" to="-354532080#3"/>
    <trip id="404" depart="288.46" from="435248365#0" to="29253113#1"/>
    <trip id="405" depart="289.17" from="-144303594#0" to="117491904#3"/>