<?xml version="1.0" encoding="UTF-8"?>

<!-- generated on 2026-04-09 18:56:17.378555 by Eclipse SUMO randomTrips.py v1_26_0+0000-fa7df22d7f1
<configuration>
    <net-file value="hyderabad.net.xml"/>
    <output-trip-file value="hyderabad_ped.trips.xml"/>
    <route-file value="hyderabad_ped.rou.xml"/>
    <pedestrians value="True"/>
    <prefix value="ped"/>
    <seed value="44"/>
    <end value="14400.0"/>
    <period value="2.0"/>
</configuration>
-->

<!-- generated on 2026-04-09T18:55:40.251229+05:30 by Eclipse SUMO duarouter 1.26.0
<duarouterConfiguration xmlns:xsi="http://www.w3.org/2001/XMLSchema-instance" xsi:noNamespaceSchemaLocation="http://sumo.dlr.de/xsd/duarouterConfiguration.xsd">

    <input>
        <net-file value="hyderabad.net.xml"/>
        <route-files value="hyderabad_ped.trips.xml"/>
    </input>

    <output>
        <output-file value="hyderabad_ped.rou.xml"/>
        <alternatives-output value="NUL"/>
    </output>

    <time>
        <begin value="0"/>
        <end value="14400.0"/>
    </time>

    <report>
        <no-warnings value="true"/>
        <ignore-errors value="true"/>
        <no-step-log value="true"/>
    </report>

</duarouterConfiguration>
-->

<routes xmlns:xsi="http://www.w3.org/2001/XMLSchema-instance" xsi:noNamespaceSchemaLocation="http://sumo.dlr.de/xsd/routes_file.xsd">
    <person id="ped0" depart="0.00">
        <walk edges="-995168985 339664957#2 609664036#5 -609664036#6 229422270#13 899130705 313351521#6 29416702#0 -115123891#1 -295150058#3 295150058#2 354532286#2 354532286#1 354532286#0 -1424923875#2 1424923875#1 1424923875#0 -1453889409#0 -1453889409#1 -1453889409#2 365689934#8 365689934#7 365689934#6 365689934#5 365689934#4 365689934#3 365689934#2 365689934#1 365689934#0 -1055061049 563566157#0 -563566157#1 -563566157#2 363362634#0 -363362634#1 -363362634#2 -1189086639 563625044#10 563625044#9 563625044#8 563625044#7 563625044#6 563625044#5 563625044#4 563625044#3 563625044#2 563625044#1 563625044#0 563625046#2 1236253043 -354538300#2 -354538300#1 354538300#0 528636493#1 764145359 635999974#0 635999974#1 635999974#2 824563426#3 824563426#4 563754491#4 563754491#3 563754491#2 563754491#1 1451064951#0 1236274573#1 1236274573#0"/>
    </person>
    <person id="ped1" depart="2.00">
        <walk edges="368748996#0 354538172#2 354538172#1 354538172#0 -354534053#0 -354534053#1 365689934#1 365689934#0 -1055061049 563566156#0 563566156#1 563566156#2 563566156#3 563566156#4 563566156#5 1146518968 1146518967#0 -1189089139#1 563566156#7 563566156#8 563566156#9 563566156#10 563566156#11 563566156#12 563566156#13 563566156#14 435248358#0 435248358#1 435248374#1 435248374#0 435248376#0 435248376#1 435248372#1 172812920 1156878945 609663726#0 609663726#1 -144309357#1 -144309357#0 -144309350#2"/>
    </person>
    <person id="ped2" depart="4.00">
        <walk edges="-31521789#2 -563625044#2 -563625044#3 -563625044#4 -563625044#5 -563625044#6 -563625044#7 -563625044#8 563625044#9 -563625044#10 -1189086639 363362634#2 363362634#1 363362634#0 563566157#2 563566157#1 563566157#0 -1055061049 31521331#11 -368748996#6 368748996#5 368748996#4 368748996#3 368748996#2 368748996#1 354537787 -354536619#3 -1188791710 1207656830#0 1207656830#1 -117486553#0 -117486553#1 -117486553#2 -117486553#3 -117486553#4 -117486553#5 -117486553#6 -117486553#7 -117486553#8"/>
    </person>
    <person id="ped3" depart="6.00">
        <walk edges="-1292973424#1 1152313441#4 1152313441#3 1152313447 1152313444 1152313445 1152313443 1152313446 1152313442#0 1161589314 1209035338#7 89914125#8 89914125#7 89914125#6 89914125#5 89914125#4 89914125#3 89914125#2 89914125#1 -1188256206#0 -1188256206#1 -1188256206#2 -110018690#1 1161647645#0 1161647645#1 110018698#0 110018698#1 110018685#0 110018685#1 -110018701#0 -110018697#1"/>
    </person>
    <person id="ped4" depart="8.00">
        <walk edges="-144303581#3 -144303581#4 144303581#5 1424775225#1 1424775225#0 -1199771913#0 1199771913#1 1199771913#2"/>
    </person>
    <person id="ped5" depart="10.00">
        <walk edges="847835517 847835519#2 847835520#4 762997079#0 144309350#3 -144309357#0 144309357#1 609663726#1 609663726#0 311509463 229422270#0 229422270#1 229422270#2 229422270#3 229422270#4 229422270#5 229422270#6 749876168#4 1474768422#0 313351521#10 313351521#9 -115140811#2 -295150057#2 -295150057#3 -295150057#4 295150058#4 -295150058#3 295150058#2 -354532286#3 354532286#4 -117491904#3 -117491904#4 292387100#1"/>
    </person>
    <person id="ped6" depart="12.00">
        <walk edges="-749685526 -1236530125#0 563566156#13 563566156#14 311684374#0 311684374#1 435248362 314808459#0 -1447375075 313352130#3 313352130#2 313352130#1 313352130#0 1209035338#10 1209035338#9 1209035338#8 1209035338#7 1209035338#6 -89914127#2 -89914127#1"/>
    </person>
    <person id="ped7" depart="14.00">
        <walk edges="29050956#3 29050956#2 29050956#1 29050956#0 31521331#9 -563614372 563566156#4 563566156#5 1146518968 1146518967#0 -1189089139#1 563566156#7 563566156#8 563566156#9 563566156#10 563566156#11 563566156#12 563566156#13 563566156#14 311684374#0 311684374#1 435248378#0 435248378#1 435248378#2 435248373#2 435248373#1 172812915#1 172812915#0 435248371 313353057#6 313353057#5 313353057#4 313353057#3 313353057#2 313353057#1 817064495 652168738#1 654438532#3 823406835#0 -823406835#1 -823406835#2 -823406835#3 -416663642#2 -416663644#0 -416663639"/>
    </person>
    <person id="ped8" depart="16.00">
        <walk edges="-1189300565 -308225003#2 172812678#6 172812678#7 172812678#8 172812678#9 172812678#10 172812678#11 -354535077#3 -354531244#0 -354531244#1 -354531244#2 -747519469#0 -420255702#0 -420255702#1 1456888057 678830576#1 678830576#0 -31357948#3 -31357948#4 -31357948#5 -31521795#0 -31521795#1 -31521795#2 -31521795#3 1347687436#2 1347687436#3 1425561379 635999974#0 635999974#1 635999974#2 824563426#3 824563426#4 563754491#4 563754491#3 563754491#2 563754491#1 1451064951#0 1152313441#11 1152313441#10 1152313441#9 1152313441#8 1152313441#7 1161589712#1 -1099221936#0 354535253 362797229#1 354536833"/>
    </person>
    <person id="ped9" depart="18.00">
        <walk edges="144303549#6 144303549#5 144303549#4 144303549#3 144303549#2 144303549#1 144303549#0 1424775225#12 1424775225#11 1424775225#10 1424775225#9 1424775225#8 1424775225#7 1424775225#6 1424775225#5 1424775225#4 1424775225#3 1424775225#2 144303581#5 144303581#4 144303581#3 144303581#2 144303581#1 144303581#0 229422270#4 581459347 581459345 581459346 313353057#5 313353057#4 313353057#3 -116231734 28656749#3 28656749#4 28656749#5 313353059#0 313353059#1 1324616062 -1273060723 1273060724 -1273746462#0"/>
    </person>
    <person id="ped10" depart="20.00">
        <walk edges="-1189092235 28656749#0 1098517313 435248365#1 435248373#2 435248378#2 435248378#1 435248378#0 311684374#1 311684374#0 563566156#14 563566156#13 563566156#12 563566156#11 563566156#10 563566156#9 563566156#8 563566156#7 -1189089139#1 1146518967#0 -1146518968 563566156#5 563566156#4 563566156#3 -1140793694 1386105766 1386105767 1379754668 1379754671 1379754669 563625044#16 563625044#15 563625044#14 563625044#13 563625044#12 563625044#11 563625044#10 563625044#9 563625044#8 563625044#7 563625044#6 563625044#5 -1236254786#0 -1236254786#1"/>
    </person>
    <person id="ped11" depart="22.00">
        <walk edges="740929428 -420183227 609664036#1 609664036#0 -314943048#5 144303549#7 144303549#6 144303549#5 144303549#4 144303549#3 144303549#2 144303549#1 144303549#0 1424775225#12 1424775225#11 1424775225#10 1424775225#9 1424775225#8 1250755337 -144303623#0 -144303623#1 -144303623#2 -144303623#3 144303623#4 -1250755338#0 -1250755338#1 -1250755338#2"/>
    </person>
    <person id="ped12" depart="24.00">
        <walk edges="144303581#1 144303581#0 229422270#5 229422270#6 749876168#4 1474768422#0 313351521#10 -115123565 420247492 -354535408#1 354533956 115123764#3 -115124193#1 753891929#1 753891929#0 -1424923876 -1424923875#2 1424923875#1 1424923875#0 1453889410 -117488999#1 117488999#0 1425535641 117489026#0 -117489026#1 354533557#0 1212649884#2 1212649884#1 1212649884#0 -1188787260#8 -1188787260#9 -1188787260#10 -1188787260#11 -31357615#3 31357615#2 31357615#1 31357627 31521331#26 31521331#27 31521331#28 237961625#0 -354536777#2 -363233833#0 363233833#1 -1373589614#0 750388783"/>
    </person>
    <person id="ped13" depart="26.00">
        <walk edges="1188047852 -703263993#0 1454366573 -1188047862 310895550#1 1310173482#0 -1271371553 1289039572 1293642074 -117507711#0 -117507711#1 -117507711#2 -117507711#3 -117507711#4 656736823#0 -1095373408 1095373407 -1095373406 1095373410 -1095373409 1377754755 1377754753 1364920296#0 419863073#0 1152313441#11 1451064951#0 1451064951#1 117502894#3 117502894#2 117502894#1 117502894#0 824563426#3 635999974#2 635999974#1 635999974#0 -764145359 -528636493#1 354538300#0 354538300#1 354538300#2 354538300#3 745633087 -563625044#0 -563625044#1 -563625044#2 -563625044#3 -563625044#4 -563625044#5 -563625044#6 -563625044#7 -563625044#8 563625044#9 -563625044#10 -1189086639 363362634#2 363362634#1 363362634#0 563566157#2 563566157#1 563566157#0 -1055061049 365689934#0 -365689934#1 -365689934#2 -365689934#3 -365689934#4 -365689934#5 -365689934#6 -365689934#7 -365689934#8 1453889409#2 1453889409#1 1453889409#0 1424923875#0 -1424923875#1 -1424923875#2 -354532286#0 -354532286#1 -354532286#2 295150058#2 -295150058#3 -115123891#1 29416702#0 313351521#6 899130705 229422270#13 609664036#6"/>
    </person>
    <person id="ped14" depart="28.00">
        <walk edges="-1455760724#0 1455760724#0 824563426#6 824563426#0 824563426#1 563754492#0 563754492#1 -528636493#1 354538300#0 354538300#1 354538300#2 354538300#3 745633087 -563625044#0 -563625044#1 -563625044#2 -563625044#3 -563625044#4 -563625044#5 -563625044#6 -563625044#7 -563625044#8 563625044#9 -563625044#10 -1189086639 363362634#2 363362634#1 363362634#0 563566157#2 563566157#1 563566157#0 -1055061049 365689934#0 -365689934#1 -365689934#2 -365689934#3 -365689934#4 -365689934#5 -365689934#6 -365689934#7 -365689934#8 1453889409#2 131606126#8 -354531948"/>
    </person>
    <person id="ped15" depart="30.00">
        <walk edges="-340819470#9 340819470#8 -340819470#7 1189088588 -340821778 563566156#7 -1189089139#1 1146518967#0 -1146518968 563566156#5 563566156#4 563566156#3 563566156#2 563566156#1 563566156#0 563566157#0 -563566157#1 -563566157#2 -31357948#0 -31357948#1 -31357948#2 -31357948#3 -31357948#4 -31357948#5 -752925208#0 1188034078 -656472170#0 656472170#1 1188034080 -1188034079#2"/>
    </person>
    <person id="ped16" depart="32.00">
        <walk edges="172812678#4 172812678#5 172812678#6 172812678#7 172812678#8 172812678#9 735384027#0 31521331#20 31521331#21 31521331#22 31521331#23 31521331#24 31521331#25 31521331#26 31521331#27 31521331#28 237961625#0 -354536777#2 -363233833#0 354534087"/>
    </person>
    <person id="ped17" depart="34.00">
        <walk edges="1152313447 1152313441#2 1152313441#1 -1189087698#0 1189087699 1189087695 -1189087697 -419863070#0 -68883444#2 -68883444#3 -68883432#3 420247500#0 -420247500#1 -420247500#2 -420247500#3 1379754669 -354533412#1 354533412#0 31521830#4 31521830#3 31521830#2 31521830#1 31521830#0 1377950062 563566156#0 -1055061049 365689934#0 -365689934#1 -365689934#2 -365689934#3 -365689934#4 -365689934#5 -365689934#6 -365689934#7 -365689934#8 1453889409#2 1453889409#1 1453889409#0 1424923875#0 -1424923875#1 -1424923875#2 -354532286#0 -354532286#1 -354532286#2 -354532286#3 354532286#4 117491904#2 117491904#1 -117491904#0 -117490393#4 117490393#3 -117490393#2"/>
    </person>
    <person id="ped18" depart="36.00">
        <walk edges="311710510#4 1270836780#1 1411409184#1 1411409184#0 1411409186#0 1411409186#1 31357633#3 31357633#2 31357633#1 31357615#0 31357627"/>
    </person>
    <person id="ped19" depart="38.00">
        <walk edges="1451025732 -1451025731#1 -1451025731#0 31521331#8 -563614372 563566156#3 -1140793694 1386105766 1386105767 1379754668 1379754671 420247500#3 420247500#2 420247500#1 420247500#0 68883432#3 -68883444#3 68883444#2 -419863070#0 -419863070#1"/>
    </person>
    <person id="ped20" depart="40.00">
        <walk edges="354536114#5 354536114#4 354536114#3 354536114#2 354536114#1 354536114#0 563605074#1 1209035339 1209035341 1209035338#0 1209035338#1 1209035338#2 1209035338#3 1209035338#4 1209035338#5 1209035338#6 1209035338#7 1209035338#8 1209035338#9 1209035338#10 313352130#0 313352130#1 313352130#2 313352130#3 313352130#4 435248363 1271648423#0 435248378#2 435248373#2 435248373#1 435248373#0 435248367 435248361 172812920 581459348 311684620 229422270#0 229422270#1 -1199766636 354537743 -1199766637 -1199771912#2 -1424775225#0 1424775225#1 -1424775225#2 -1424775225#3 -1424775225#4 -1424775225#5 -1424775225#6 -1424775225#7 -1424775225#8 -1424775225#9 -1424775225#10 -1424775225#11 -1424775225#12 -144303549#0 -144303549#1 -144303549#2 -144303549#3 -144303549#4 -144303549#5 -144303549#6 -144303549#7 -144303549#8 -144303549#9 -144303549#10 -144303549#11 -144303549#12 -144303549#13 -144303549#14 -144303549#15 -144303549#16 -144303549#17 144303587"/>
    </person>
    <person id="ped21" depart="42.00">
        <walk edges="1379754671 420247500#3 420247500#2 420247500#1 420247500#0 68883432#3 -68883444#3 68883444#2 68883444#1 -68883444#0 -1425562350#1 1152313441#0 1152313441#1 1152313441#2 1152313447 1152313444 1152313445 1152313443 1152313446 1152313442#0 1161589314 1209035338#6 1209035338#5 1209035338#4 1209035338#3 1236272324#2"/>
    </person>
    <person id="ped22" depart="44.00">
        <walk edges="-31521814#1 -31521815#0 -31521815#1 -31521815#2 -31521815#3 -1189299432 1189299431 -354538908#3 354531244#1 -354531244#0 -354535077#3 172812678#11 750026004 31521331#19 31521331#20 -420255697 -754187236#2 -117486556 117486553#3 117486553#2 117486553#1 -1192020174 117487257#2 117487257#1 117487257#0"/>
    </person>
    <person id="ped23" depart="46.00">
        <walk edges="354531636#4 563754491#4 824563426#4 824563426#3 635999974#2 635999974#1 635999974#0 -764145359 -528636493#1 354538300#0 354538300#1 354538300#2 354538300#3 745633087 -563625044#0 -563625044#1 -563625044#2 -563625044#3 -563625044#4 -563625044#5 -563625044#6 -563625044#7 -563625044#8 563625044#9 -563625044#10 -563625044#11 -563625044#12 -563625044#13 -563625044#14 -563625044#15 -563625044#16 -1379754669 1386105765 -1386105766 -1140793694 563566156#3 563614372 31521331#8 -1451025731#0 -1451025731#1 1451025732 29050956#7 -29050956#8 -354537894#1 -1189091335 354532912#0 749876168#3 749876168#4 229422270#7 229422270#8"/>
    </person>
    <person id="ped24" depart="48.00">
        <walk edges="-563625044#8 563625044#9 -563625044#10 -563625044#11 -563625044#12 -563625044#13 -563625044#14 -563625044#15 -563625044#16 -1379754669 1386105765 -1386105766 -1140793694 563566156#3 563614372 31521331#8 -1451025731#0 -1451025731#1 1451025732 29050956#7 -29050956#8 -354537894#1 -1189091335 354532912#0 749876168#3 749876168#4 229422270#7 229422270#8 229422270#9 317840172#0 -317840172#1 -317840172#2 -1424775225#11 -1424775225#12 -144303549#0 -144303549#1 -144303549#2 -144303549#3 -144303549#4 -144303549#5 -144303549#6 -144303549#7 -314943048#5 609664036#0 354534962#0"/>
    </person>
    <person id="ped25" depart="50.00">
        <walk edges="354536731#1 -354536731#0 110012642 -1188787260#5 -1188787260#6 -656513344 -117492277#4 31770517#1 31770517#2 -117493070#1"/>
    </person>
    <person id="ped26" depart="52.00">
        <walk edges="-144303581#5 -1424775225#2 -1424775225#3 -1424775225#4 -1424775225#5 -1424775225#6 -1424775225#7 -1424775225#8 -1424775225#9 -1424775225#10 -1424775225#11 -1424775225#12 -144303549#0 -144303549#1 -144303549#2 -144303549#3 -144303549#4 -144303549#5 -144303549#6 -144303549#7 -314943048#5 -314943048#4"/>
    </person>
    <person id="ped27" depart="54.00">
        <walk edges="-115123893#1 354532286#1 354532286#0 1424923875#2 1424923875#1 1424923875#0 -1453889409#0 -1453889409#1 -1453889409#2 365689934#8 365689934#7 365689934#6 365689934#5 365689934#4 365689934#3 365689934#2 365689934#1 365689934#0 -1055061049 563566157#0 -563566157#1 -563566157#2 -31357948#0 354536517#1 31521794#1"/>
    </person>
    <person id="ped28" depart="56.00">
        <walk edges="144309350#6 -144309350#5 420267026#0 -144309358#1 144309357#1 609663726#1 609663726#0 1156878945 172812920 435248372#1 435248376#1 435248376#0 435248374#0 435248374#1 435248358#1 435248358#0 563566156#14 563566156#13 -1236530125#0 1236530125#1"/>
    </person>
    <person id="ped29" depart="58.00">
        <walk edges="89914125#4 89914125#5 89914125#6 89914125#7 89914125#8 1209035338#7 1209035338#6 1209035338#5 1209035338#4 1209035338#3 1209035338#2 1209035338#1 1209035338#0 1209035341 1209035339 563605074#1 -354536114#0 -656736823#1 -656736823#0"/>
    </person>
    <person id="ped30" depart="60.00">
        <walk edges="-215523272#2 215523272#2 215523272#1 215523272#0 -654438532#1 -654438532#2 -654438532#3 652168738#1 652168738#2 313353058 313353059#0 313353059#1 1324616062 -1273060723 -1273060722#1"/>
    </person>
    <person id="ped31" depart="62.00">
        <walk edges="1424923875#0 354536521#1 -1188785892 -1188785894"/>
    </person>
    <person id="ped32" depart="64.00">
        <walk edges="1152313441#4 1152313441#3 1152313447 1152313444 1152313445 1152313443 1152313446 1152313442#0 1161589314 1209035338#6 1209035338#5 1209035338#4 1209035338#3 1209035338#2 1209035338#1 1209035338#0 1209035341 1209035339 563605074#1 -354536114#0 354536114#1 -117507834#1"/>
    </person>
    <person id="ped33" depart="66.00">
        <walk edges="144303577 1424773278#3 1424773278#2 -1315746129 1199766635#4 1199766635#3 -144303636#11 144303636#10 144303636#9 -144303636#8 144303636#7 144303636#6 144303636#5 144303636#4 144303636#3 -144303636#2 144303636#1 -144303636#0 -144303623#2 -144303558#1 -1330579919"/>
    </person>
    <person id="ped34" depart="68.00">
        <walk edges="-144309354#0 -144309350#13 144309350#12 144309350#11 144309350#10 144309350#9 144309350#8 144309350#7 144309350#6 -144309350#5 420267026#0 -144309358#1 144309357#1 609663726#1 609663726#0 311509463 229422270#0 229422270#1 -1199766636 354537743 -1199766637 -1199771912#2 -1424775225#0 1424775225#1 -1424775225#2 -1424775225#3 -1424775225#4 144303574 -144303588#1 -144303623#1 144303636#0 144303636#1 -144303636#2 144303636#3 144303636#4"/>
    </person>
    <person id="ped35" depart="70.00">
        <walk edges="354536517#0 -354536517#0 31357948#0 563566157#2 563566157#1 563566157#0 -1055061049 365689934#0 -365689934#1 -365689934#2 -365689934#3 -365689934#4 -365689934#5 -365689934#6 -365689934#7 -365689934#8 1453889409#2 1453889409#1 1453889409#0 1453889410 115122471#2 115122471#1 115122471#0 292387100#0 -292387100#1 -292387100#2 -312377017#4 312377017#3 -656563379 354536542#1 354536542#0 -1424924010#0 -1424924010#1 -1424924010#2 -1424924010#3 1424924157#0 1424924157#1 313351521#1 899130524 229422270#16 144303619#0 -144303619#1 144303561#2"/>
    </person>
    <person id="ped36" depart="72.00">
        <walk edges="-354536164#1 354536164#0 -68883437#3 -68883437#4 313352846#0 1310268905 314808459#2 314808459#1 -1447375075 313352130#4 435248363 1271648423#0 435248378#2 435248373#2 435248373#1 435248373#0 435248367 435248361 172812920 1156878945 609663726#0 609663726#1 144309357#1 -144309358#1 420267026#0 -144309350#5 144309350#6 -144309350#7 144309350#8 -144309350#9 -144309350#10 -144309350#11 -144309350#12 144309350#13"/>
    </person>
    <person id="ped37" depart="74.00">
        <walk edges="-354533522#2 1424924011#1 354536542#0 -354536542#1 -656563379 -312377017#3 -312377017#4 292387100#2 292387100#1 292387100#0 115122471#0 -115122471#1 -115122471#2 -1453889410 -1453889409#0 -1453889409#1 -1453889409#2 365689934#8 365689934#7 365689934#6 365689934#5 365689934#4 365689934#3 365689934#2 365689934#1 365689934#0 -1055061049 563566157#0 -563566157#1 -563566157#2 -363362634#0 -363362634#1 -363362634#2 -1189086639 -563625044#11 68883422 -68883429#5 354533661#0 68883424#2 68883424#1 68883424#0 420247500#2 420247500#1 420247500#0 68883432#3 68883444#3 68883444#2 68883444#1 -68883444#0 -1425562350#1 1152313441#0 1152313441#1 1152313441#2 1152313447 1152313444 1152313445 1152313443 1152313446 1152313442#0 1161589314 1209035338#7 89914125#8 89914125#7 89914125#6 89914125#5 89914125#4 89914125#3 89914125#2 89914125#1 89914125#0 1274812543#1 1274812543#0 -110018690#0"/>
    </person>
    <person id="ped38" depart="76.00">
        <walk edges="-354533661#0 -354533661#1 -563625044#16 -1379754669 1386105765 -1386105766 -1140793694 563566156#3 563566156#4 563566156#5 1146518968 1146518967#0 -1189089139#1 563566156#7 563566156#8 563566156#9 563566156#10 563566156#11 563566156#12 563566156#13 563566156#14 311684374#0 311684374#1 435248378#0 435248378#1 435248378#2 435248373#2 435248373#1 172812915#1 172812915#0 435248371 313353057#6 313353057#5 313353057#4 313353057#3 313353057#2 313353057#1 817064495 652168738#1 654438532#3 654438532#2 282040812#0 -282040812#1 282040812#2 282040812#3"/>
    </person>
    <person id="ped39" depart="78.00">
        <walk edges="144303581#5 144303581#4 144303581#3 144303581#2 144303581#1 144303581#0 229422270#5 229422270#6 749876168#4 749876168#3 -354532912#0 -1189091335 -354537894#1 29050956#8 29050956#7 29050956#6 29050956#5 29050956#4 29050956#3 29050956#2 29050956#1 29050956#0 31521331#10 -1055061049 563566157#0 -563566157#1 -563566157#2 -31357948#0 -31357948#1 -31357948#2 678830576#0 678830576#1 1456888057 420255702#1 420255702#0 747519469#0 354531244#2 -354538908#3 1189299431 -1189299432 -31521815#3 31521815#2 -1456885365#0"/>
    </person>
    <person id="ped40" depart="80.00">
        <walk edges="354536741#2 -354536741#1 -354536741#0 310896042 310896044#4 310896044#3 310896044#2 310896044#1 310896044#0 1209035339 563605074#1 -354536114#0 354536114#1 -354536114#2 -354536114#3 -354536114#4 354536114#5"/>
    </person>
    <person id="ped41" depart="82.00">
        <walk edges="-354534205 -1457102839#0 1457102839#1 -1455760725#0 -1455760725#1 824563426#1 563754492#0 563754492#1 -528636493#1 354538300#0 354538300#1 354538300#2 354538300#3 745633087 -563625044#0 -563625044#1 -563625044#2 -563625044#3 -563625044#4 -563625044#5 -563625044#6 -563625044#7 -563625044#8 563625044#9 -563625044#10 -1189086639 363362634#2 363362634#1 363362634#0 563566157#2 563566157#1 563566157#0 -1055061049 365689934#0 -365689934#1 -365689934#2 -365689934#3 -365689934#4 -365689934#5 -365689934#6 -365689934#7 -365689934#8 1453889409#2 1453889409#1 1453889409#0 1453889410 115122471#2 115122471#1 115122471#0 292387100#0 -292387100#1 -292387100#2 -312377017#4 312377017#3 -656563379 354536542#1 354536542#0 -1424924010#0 -354538244 747983502"/>
    </person>
    <person id="ped42" depart="84.00">
        <walk edges="-354532286#2 354532286#2 354532286#1 354532286#0 -1424923875#2 1424923875#1 1424923875#0 -1453889409#0 -1453889409#1 -1453889409#2 365689934#8 365689934#7 365689934#6 365689934#5 365689934#4 365689934#3 365689934#2 365689934#1 365689934#0 -1055061049 563566157#0 -563566157#1 -563566157#2 363362634#0 -363362634#1 -363362634#2 -1189086639 -563625044#11 68883422 -68883429#5 354533661#0 68883424#2 68883424#1 68883424#0 420247500#2 420247500#1 420247500#0 68883432#3 68883432#4 68883432#5 68883432#6 -68883440#1 -68883430#1 68883430#0 1189078968#1 -1189078968#0"/>
    </person>
    <person id="ped43" depart="86.00">
        <walk edges="1199771912#0 313351524#0 313351524#1 313351524#2 311684620 581459348 172812920 435248361 435248367 435248373#0 435248373#1 435248373#2 435248378#2 1271648423#0 435248363 313352130#4 313352130#3 313352130#2 313352130#1 313352130#0 1209035338#10 656618631 369833476#0"/>
    </person>
    <person id="ped44" depart="88.00">
        <walk edges="1411409929 1411409185#2 1411409185#1 1411409185#0 1411409193 1411409191#2 -117492277#1 -117492277#2 -354537248 -117489793#3 1188787260#3 -354533557#3 354533557#2 354533557#1 354533557#0 -1212649884#3 117487257#6 117487257#5 117487257#4 117487257#3 117487257#2 117487257#1 1241272193"/>
    </person>
    <person id="ped45" depart="90.00">
        <walk edges="1188626901 354536458#4 -354536458#5 -354536458#6 -354536458#7 -354536458#8 -29050956#5 -29050956#6 29050956#7 -29050956#8 -29050956#9 29050956#10 -29050956#11 1123618292#0 1123618292#1 564179189 581459348 1156878945 609663726#0 609663726#1 -144309357#1 -144309358#1 420267026#0 -144309350#5 144309350#6 -144309350#7 144309350#8 -144309350#9 -144309350#10 -354535078"/>
    </person>
    <person id="ped46" depart="92.00">
        <walk edges="-354536619#2 -354537787 -368748996#1 -368748996#2 -368748996#3 -368748996#4 -368748996#5 -368748996#6 31521331#11 -1055061049 563566156#0 563566156#1 563566156#2 563566156#3 563566156#4 563566156#5 1146518968 1146518967#0 -1189089139#1 563566156#7 563566156#8 563566156#9 563566156#10 563566156#11 563566156#12 563566156#13 563566156#14 435248358#0 435248358#1 435248374#1 435248374#0 435248376#0 435248376#1 435248372#1 172812920 1156878945 609663726#0 609663726#1 -144309357#1 -144309357#0 -144309350#3 762997079#0 -847835520#4 -847835520#3 -847835520#2"/>
    </person>
    <person id="ped47" depart="94.00">
        <walk edges="1241273941 -1241273940 31521331#15 31521331#14 31521331#13 31521331#12 31521331#11 -1055061049 563566157#0 -563566157#1 -563566157#2 363362634#0 -363362634#1 -363362634#2 -1189086639 -563625044#11 68883422 -68883429#5 354533661#0 68883424#2 68883424#1 68883424#0 420247500#2 420247500#1 420247500#0 68883432#3"/>
    </person>
    <person id="ped48" depart="96.00">
        <walk edges="-1189148941 144303549#6 144303549#5 144303549#4 144303549#3 144303549#2 144303549#1 144303549#0 1424775225#12 1424775225#11 317840172#2 317840172#1 317840172#0 229422270#9 229422270#8 229422270#7 749876168#4 749876168#3 -354532912#0 -1189091335 -354537894#1 29050956#8 29050956#7 1451025732 -1451025731#1 -1451025731#0 31521331#8 -563614372 563566156#3 -1140793694 1386105766 1386105767 1379754668 1379754671 1379754669 563625044#16 -354533661#1 354533661#0 68883424#2 343838636#0 -343838636#1"/>
    </person>
    <person id="ped49" depart="98.00">
        <walk edges="68883432#6 -68883432#5 -68883432#4 -68883432#3 -420247500#0 -420247500#1 -420247500#2 -420247500#3 1379754669 -354533412#1 354533412#0 31521830#4 31521830#3 31521830#2 31521830#1 31521830#0 1377950062 563566156#0 -1055061049 365689934#0 -365689934#1 -365689934#2 -365689934#3 -365689934#4 -365689934#5 -365689934#6 -365689934#7 -365689934#8 1453889409#2 1453889409#1 1453889409#0 1453889410 115122471#2 115122471#1 115122471#0 292387100#0 -292387100#1 -292387100#2 -312377017#4 312377017#3 -656563379 354536542#1 354536542#0 -1424924010#0 -1424924010#1 -1424924010#2 -1424924010#3 1424924157#0 354538863#1 1451285085"/>
    </person>
    <person id="ped50" depart="100.00">
        <walk edges="-1189381154#1 1189381154#2 -31521801#0 -31521801#1 -31521801#2 -31521801#3 31521803#5 31521803#4 752925208#3 752925208#2 752925208#1 752925208#0 31357948#5 31357948#4 -31357948#3 31357948#2 31357948#1 354536517#1 31521794#0 -363362634#1 -363362634#2 -1189086639 -563625044#11 68883422 -68883429#5 354533661#0 68883424#2 68883424#1 68883424#0 420247500#2 420247500#1 420247500#0 68883432#3 68883444#3 68883444#2 68883444#1 -68883444#0 -1425562350#1 1152313441#0 1152313441#1 1152313441#2 1152313447 1152313444 1152313445 1152313443 1152313446 1152313442#0 1161589314 1209035338#7 89914125#8 89914125#7 89914125#6 89914125#5 89914125#4 89914125#3 89914125#2 89914125#1 -1188256206#0 -1188256206#1 -1188256206#2 -110018690#1 1161647645#0 1161647645#1"/>
    </person>
    <person id="ped51" depart="102.00">
        <walk edges="144309358#0 -144309358#0 -144309357#0 144309350#2 144309350#1 144309350#0 1227727878 313353057#4 313353057#5 581459346 581459345"/>
    </person>
    <person id="ped52" depart="104.00">
        <walk edges="-1207364313 310896041#6 310896041#5 310896041#4 310896041#3 310896041#2 310896041#1 310896041#0 1365261688 310896042 310896044#4 310896044#3 310896044#2 310896044#1 310896044#0 1209035339 563605074#1"/>
    </person>
    <person id="ped53" depart="106.00">
        <walk edges="339664957#2 609664036#5 -609664036#6 229422270#13 899130705 313351521#6 29416702#0 -115123891#1 -295150058#3 295150058#2 354532286#2 354532286#1 354532286#0 -1424923875#2 1424923875#1 1424923875#0 -1453889409#0 -1453889409#1 -1453889409#2 365689934#8 365689934#7 365689934#6 365689934#5 365689934#4 365689934#3 365689934#2 -354534053#2"/>
    </person>
    <person id="ped54" depart="108.00">
        <walk edges="1236254157#2 -1236254157#1 -1236254157#0 1236254154#2 563625044#9 416342890 -68883429#4 -68883429#5 354533661#0 68883424#2 68883424#1 68883424#0 420247500#2 420247500#1 420247500#0 68883432#3 -68883444#3 68883444#2 68883444#1 -68883444#0 354535783#0"/>
    </person>
    <person id="ped55" depart="110.00">
        <walk edges="-339665123#0 339665123#0 317840172#0 229422270#9 229422270#8 229422270#7 229422270#6 229422270#5 229422270#4 229422270#3 229422270#2 229422270#1 229422270#0 311684620 581459348 172812920 435248361 435248367 435248373#0 435248373#1 435248373#2 435248378#2 1271648423#0 435248363 313352130#4 313352130#3 313352130#2 313352130#1 313352130#0 1209035338#10 1209035338#9 1209035338#8 1209035338#7 1209035338#6 -89914127#2 -89914127#1 309521560#1 309521560#0"/>
    </person>
    <person id="ped56" depart="112.00">